CHEMBL1967252.smi
                    3D
 Structure written by MMmdl.
 27 29  0  0  1  0            999 V2000
    5.3249   -0.3178    0.5500 C   0  0  0  0  0  0
    3.8546   -0.2048    0.7068 C   0  0  0  0  0  0
    3.3119    0.8996    1.2358 N   0  0  0  0  0  0
    1.9920    0.6486    1.2170 N   0  0  0  0  0  0
    1.3645    1.3588    1.5751 H   0  0  0  0  0  0
    1.6593   -0.5737    0.6987 C   0  0  0  0  0  0
    0.4254   -1.1976    0.5078 C   0  0  0  0  0  0
    0.4420   -2.4785   -0.0612 C   0  0  0  0  0  0
    1.6375   -3.1216   -0.4288 C   0  0  0  0  0  0
    2.8601   -2.4521   -0.2158 C   0  0  0  0  0  0
    2.8672   -1.1641    0.3537 C   0  0  0  0  0  0
    1.6163   -4.4663   -1.0230 C   0  0  0  0  0  0
    2.3761   -5.5192   -0.4975 C   0  0  0  0  0  0
    2.3299   -6.7828   -1.0845 C   0  0  0  0  0  0
    1.5187   -6.9636   -2.1912 C   0  0  0  0  0  0
    0.7692   -5.9839   -2.7362 N   0  0  0  0  0  0
    0.8381   -4.7666   -2.1426 C   0  0  0  0  0  0
    5.7035   -1.1751    1.1158 H   0  0  0  0  0  0
    5.8396    0.5790    0.9104 H   0  0  0  0  0  0
    5.5860   -0.4568   -0.5039 H   0  0  0  0  0  0
   -0.5087   -0.7215    0.7872 H   0  0  0  0  0  0
   -0.5116   -2.9863   -0.2053 H   0  0  0  0  0  0
    3.8006   -2.9169   -0.4996 H   0  0  0  0  0  0
    2.9987   -5.3643    0.3807 H   0  0  0  0  0  0
    2.9104   -7.6061   -0.6840 H   0  0  0  0  0  0
    1.4479   -7.9297   -2.6827 H   0  0  0  0  0  0
    0.2285   -4.0036   -2.6211 H   0  0  0  0  0  0
  1  2  1  0  0  0
  1 18  1  0  0  0
  1 19  1  0  0  0
  1 20  1  0  0  0
  2 11  1  0  0  0
  2  3  2  0  0  0
  3  4  1  0  0  0
  4  6  1  0  0  0
  4  5  1  0  0  0
  6 11  1  0  0  0
  6  7  2  0  0  0
  7  8  1  0  0  0
  7 21  1  0  0  0
  8  9  2  0  0  0
  8 22  1  0  0  0
  9 10  1  0  0  0
  9 12  1  0  0  0
 10 11  2  0  0  0
 10 23  1  0  0  0
 12 13  2  0  0  0
 12 17  1  0  0  0
 13 14  1  0  0  0
 13 24  1  0  0  0
 14 15  2  0  0  0
 14 25  1  0  0  0
 15 16  1  0  0  0
 15 26  1  0  0  0
 16 17  2  0  0  0
 17 27  1  0  0  0
M  END
> <s_m_entry_id>
7222

> <s_m_job_name>
mmod_csearch_9

> <r_mmod_Potential_Energy-MMFF94s>
232.52417

> <b_mmod_Minimization_Converged-MMFF94s>
1

> <r_mmod_RMS_Derivative-MMFF94s>
0.0041

> <i_mmod_Times_Found-MMFF94s>
231

> <r_mmod_Relative_Potential_Energy-MMFF94s>
0

> <i_mmod_Conformation-MMFF94s>
1

> <s_lp_label>
 _83

> <i_mmod_Serial_Number-MMFF94s>
83

$$$$
