CHEMBL1992125.smi
                    3D
 Structure written by MMmdl.
 55 58  0  0  1  0            999 V2000
   -4.3544   18.8393   14.6167 C   0  0  0  0  0  0
   -4.2972   18.8566   13.1919 O   0  0  0  0  0  0
   -3.2365   18.1688   12.6613 C   0  0  0  0  0  0
   -2.5882   18.8132   11.6037 C   0  0  0  0  0  0
   -1.4849   18.2370   10.9562 C   0  0  0  0  0  0
   -0.8962   18.9374    9.8946 N   0  0  0  0  0  0
    0.0531   18.6036    8.9306 C   0  0  0  0  0  0
    0.4455   19.6063    8.1545 N   0  0  0  0  0  0
    1.3490   19.2765    7.2432 C   0  0  0  0  0  0
    1.8621   18.0689    7.0488 N   0  0  0  0  0  0
    1.3954   17.1072    7.8463 C   0  0  0  0  0  0
    0.4988   17.3598    8.7996 N   0  0  0  0  0  0
    1.8822   15.7926    7.6967 N   0  0  0  0  0  0
    3.1896   15.6929    7.0402 C   0  0  0  0  0  0
    4.0633   14.6702    7.7533 C   0  0  0  0  0  0
    3.4178   13.3004    7.6677 C   0  0  0  0  0  0
    1.9562   13.3523    8.0293 C   0  0  0  0  0  0
    1.3095   12.1382    8.3349 C   0  0  0  0  0  0
   -0.0507   12.1036    8.6457 C   0  0  0  0  0  0
   -0.7360   10.8044    8.9440 C   0  0  0  0  0  0
   -0.7719   13.2943    8.6070 C   0  0  0  0  0  0
   -0.1345   14.5019    8.2972 C   0  0  0  0  0  0
    1.2400   14.5701    8.0124 C   0  0  0  0  0  0
   -1.0544   16.9754   11.3905 C   0  0  0  0  0  0
   -1.6985   16.3012   12.4373 C   0  0  0  0  0  0
   -1.3282   15.0687   12.9161 O   0  0  0  0  0  0
   -0.0856   14.5425   12.4666 C   0  0  0  0  0  0
   -2.8167   16.8923   13.0480 C   0  0  0  0  0  0
   -3.4740   16.2193   14.0503 O   0  0  0  0  0  0
   -4.4522   15.3476   13.4818 C   0  0  0  0  0  0
   -4.8456   19.7633   14.9379 H   0  0  0  0  0  0
   -3.3614   18.8151   15.0799 H   0  0  0  0  0  0
   -4.9705   18.0044   14.9623 H   0  0  0  0  0  0
   -2.9568   19.7874   11.2908 H   0  0  0  0  0  0
   -1.1655   19.9041    9.7811 H   0  0  0  0  0  0
    1.7040   20.0695    6.5942 H   0  0  0  0  0  0
    3.0551   15.4233    5.9844 H   0  0  0  0  0  0
    3.7455   16.6387    7.0600 H   0  0  0  0  0  0
    4.1896   14.9603    8.8047 H   0  0  0  0  0  0
    5.0616   14.6398    7.3027 H   0  0  0  0  0  0
    3.9501   12.6125    8.3353 H   0  0  0  0  0  0
    3.5071   12.9114    6.6458 H   0  0  0  0  0  0
    1.8803   11.2112    8.3261 H   0  0  0  0  0  0
   -1.1025   10.3526    8.0171 H   0  0  0  0  0  0
   -1.5820   10.9558    9.6228 H   0  0  0  0  0  0
   -0.0500   10.1043    9.4323 H   0  0  0  0  0  0
   -1.8395   13.3014    8.8155 H   0  0  0  0  0  0
   -0.7561   15.3924    8.2644 H   0  0  0  0  0  0
   -0.2000   16.5188   10.9057 H   0  0  0  0  0  0
   -0.1302   14.2866   11.4051 H   0  0  0  0  0  0
    0.1055   13.6190   13.0216 H   0  0  0  0  0  0
    0.7392   15.2321   12.6751 H   0  0  0  0  0  0
   -4.9821   14.8596   14.3054 H   0  0  0  0  0  0
   -3.9892   14.5666   12.8694 H   0  0  0  0  0  0
   -5.1874   15.9069   12.8924 H   0  0  0  0  0  0
  1  2  1  0  0  0
  1 31  1  0  0  0
  1 32  1  0  0  0
  1 33  1  0  0  0
  2  3  1  0  0  0
  3 28  1  0  0  0
  3  4  2  0  0  0
  4  5  1  0  0  0
  4 34  1  0  0  0
  5 24  2  0  0  0
  5  6  1  0  0  0
  6  7  1  0  0  0
  6 35  1  0  0  0
  7 12  1  0  0  0
  7  8  2  0  0  0
  8  9  1  0  0  0
  9 10  2  0  0  0
  9 36  1  0  0  0
 10 11  1  0  0  0
 11 12  2  0  0  0
 11 13  1  0  0  0
 13 14  1  0  0  0
 13 23  1  0  0  0
 14 15  1  0  0  0
 14 37  1  0  0  0
 14 38  1  0  0  0
 15 16  1  0  0  0
 15 39  1  0  0  0
 15 40  1  0  0  0
 16 17  1  0  0  0
 16 41  1  0  0  0
 16 42  1  0  0  0
 17 18  2  0  0  0
 17 23  1  0  0  0
 18 19  1  0  0  0
 18 43  1  0  0  0
 19 21  2  0  0  0
 19 20  1  0  0  0
 20 44  1  0  0  0
 20 45  1  0  0  0
 20 46  1  0  0  0
 21 22  1  0  0  0
 21 47  1  0  0  0
 22 23  2  0  0  0
 22 48  1  0  0  0
 24 25  1  0  0  0
 24 49  1  0  0  0
 25 28  2  0  0  0
 25 26  1  0  0  0
 26 27  1  0  0  0
 27 50  1  0  0  0
 27 51  1  0  0  0
 27 52  1  0  0  0
 28 29  1  0  0  0
 29 30  1  0  0  0
 30 53  1  0  0  0
 30 54  1  0  0  0
 30 55  1  0  0  0
M  END
> <s_m_entry_id>
9881

> <s_m_job_name>
mmod_csearch_10

> <r_mmod_Potential_Energy-MMFF94s>
-373.600586

> <b_mmod_Minimization_Converged-MMFF94s>
0

> <r_mmod_RMS_Derivative-MMFF94s>
0.051617

> <i_mmod_Times_Found-MMFF94s>
137

> <r_mmod_Relative_Potential_Energy-MMFF94s>
0

> <i_mmod_Conformation-MMFF94s>
1

> <s_lp_label>
 _50

> <i_mmod_Serial_Number-MMFF94s>
50

$$$$
