CHEMBL225519.smi
                    3D
 Structure written by MMmdl.
 27 29  0  0  1  0            999 V2000
    6.3118    6.8038  -10.6336 O   0  0  0  0  0  0
    5.7804    6.3535   -9.6255 C   0  0  0  0  0  0
    4.4104    6.4053   -9.4436 N   0  0  0  0  0  0
    3.7479    6.1097   -8.1745 C   0  0  0  0  0  0
    4.3887    4.9474   -7.3882 C   0  0  0  0  0  0
    5.8647    5.0698   -7.5054 C   0  0  0  0  0  0
    6.7987    4.5535   -6.6551 N   0  0  0  0  0  0
    6.6041    4.0027   -5.8295 H   0  0  0  0  0  0
    8.0658    4.8547   -7.1206 C   0  0  0  0  0  0
    7.8979    5.5647   -8.3034 C   0  0  0  0  0  0
    6.5102    5.7118   -8.5420 C   0  0  0  0  0  0
    9.2893    4.4260   -6.4395 C   0  0  0  0  0  0
   10.4185    4.0672   -7.1781 C   0  0  0  0  0  0
   11.5571    3.6623   -6.5000 C   0  0  0  0  0  0
   11.6469    3.5960   -5.1553 N   0  0  0  0  0  0
   10.5497    3.9577   -4.4594 C   0  0  0  0  0  0
    9.3637    4.3719   -5.0460 C   0  0  0  0  0  0
    3.9032    6.8581  -10.1920 H   0  0  0  0  0  0
    3.7991    7.0305   -7.5810 H   0  0  0  0  0  0
    2.6937    5.9009   -8.3817 H   0  0  0  0  0  0
    4.0776    3.9922   -7.8274 H   0  0  0  0  0  0
    4.0578    4.9662   -6.3450 H   0  0  0  0  0  0
    8.6910    5.9495   -8.9327 H   0  0  0  0  0  0
   10.4175    4.0886   -8.2626 H   0  0  0  0  0  0
   12.4536    3.3708   -7.0396 H   0  0  0  0  0  0
   10.6518    3.9088   -3.3791 H   0  0  0  0  0  0
    8.5325    4.6654   -4.4159 H   0  0  0  0  0  0
  1  2  2  0  0  0
  2  3  1  0  0  0
  2 11  1  0  0  0
  3  4  1  0  0  0
  3 18  1  0  0  0
  4  5  1  0  0  0
  4 19  1  0  0  0
  4 20  1  0  0  0
  5  6  1  0  0  0
  5 21  1  0  0  0
  5 22  1  0  0  0
  6  7  1  0  0  0
  6 11  2  0  0  0
  7  9  1  0  0  0
  7  8  1  0  0  0
  9 12  1  0  0  0
  9 10  2  0  0  0
 10 11  1  0  0  0
 10 23  1  0  0  0
 12 13  2  0  0  0
 12 17  1  0  0  0
 13 14  1  0  0  0
 13 24  1  0  0  0
 14 15  2  0  0  0
 14 25  1  0  0  0
 15 16  1  0  0  0
 16 17  2  0  0  0
 16 26  1  0  0  0
 17 27  1  0  0  0
M  END
> <s_m_entry_id>
10254

> <s_m_job_name>
mmod_csearch_16

> <r_mmod_Potential_Energy-MMFF94s>
78.948654

> <b_mmod_Minimization_Converged-MMFF94s>
1

> <r_mmod_RMS_Derivative-MMFF94s>
0.008502

> <i_mmod_Times_Found-MMFF94s>
1238

> <r_mmod_Relative_Potential_Energy-MMFF94s>
0

> <i_mmod_Conformation-MMFF94s>
1

> <s_lp_label>
 _2

> <i_mmod_Serial_Number-MMFF94s>
2

$$$$
