CHEMBL1972346.smi
                    3D
 Structure written by MMmdl.
 30 31  0  0  1  0            999 V2000
    3.4251   -2.6516   -1.4328 O   0  0  0  0  0  0
    3.3048   -1.4706   -0.7604 C   0  0  0  0  0  0
    4.3351   -0.5386   -0.7469 C   0  0  0  0  0  0
    4.1539    0.6509   -0.0516 C   0  0  0  0  0  0
    5.1785    1.5527   -0.0653 O   0  0  0  0  0  0
    2.9657    0.9147    0.6294 C   0  0  0  0  0  0
    1.9332   -0.0347    0.6275 C   0  0  0  0  0  0
    0.6475    0.2048    1.2997 C   0  0  0  0  0  0
    0.5293    0.8158    2.4899 C   0  0  0  0  0  0
   -0.7535    1.0417    3.1724 C   0  0  0  0  0  0
   -1.9224    1.3916    2.4737 C   0  0  0  0  0  0
   -3.1227    1.6322    3.1530 C   0  0  0  0  0  0
   -3.1474    1.5329    4.5374 C   0  0  0  0  0  0
   -4.2865    1.7567    5.2594 O   0  0  0  0  0  0
   -1.9908    1.2026    5.2374 C   0  0  0  0  0  0
   -2.0218    1.1144    6.6003 O   0  0  0  0  0  0
   -0.7965    0.9619    4.5704 C   0  0  0  0  0  0
    2.1102   -1.2270   -0.0870 C   0  0  0  0  0  0
    4.3047   -2.6835   -1.8447 H   0  0  0  0  0  0
    5.2698   -0.7151   -1.2677 H   0  0  0  0  0  0
    4.9185    2.3275    0.4603 H   0  0  0  0  0  0
    2.8337    1.8577    1.1508 H   0  0  0  0  0  0
   -0.2270   -0.1840    0.7833 H   0  0  0  0  0  0
    1.4103    1.1469    3.0348 H   0  0  0  0  0  0
   -1.9067    1.4910    1.3906 H   0  0  0  0  0  0
   -4.0097    1.8974    2.5872 H   0  0  0  0  0  0
   -5.0026    1.9701    4.6368 H   0  0  0  0  0  0
   -2.9486    1.3175    6.8376 H   0  0  0  0  0  0
    0.0886    0.7050    5.1457 H   0  0  0  0  0  0
    1.3251   -1.9785   -0.1174 H   0  0  0  0  0  0
  1  2  1  0  0  0
  1 19  1  0  0  0
  2 18  1  0  0  0
  2  3  2  0  0  0
  3  4  1  0  0  0
  3 20  1  0  0  0
  4  6  2  0  0  0
  4  5  1  0  0  0
  5 21  1  0  0  0
  6  7  1  0  0  0
  6 22  1  0  0  0
  7 18  2  0  0  0
  7  8  1  0  0  0
  8  9  2  0  0  0
  8 23  1  0  0  0
  9 10  1  0  0  0
  9 24  1  0  0  0
 10 11  2  0  0  0
 10 17  1  0  0  0
 11 12  1  0  0  0
 11 25  1  0  0  0
 12 13  2  0  0  0
 12 26  1  0  0  0
 13 15  1  0  0  0
 13 14  1  0  0  0
 14 27  1  0  0  0
 15 17  2  0  0  0
 15 16  1  0  0  0
 16 28  1  0  0  0
 17 29  1  0  0  0
 18 30  1  0  0  0
M  END
> <s_m_entry_id>
9997

> <s_m_job_name>
mmod_csearch_11

> <r_mmod_Potential_Energy-MMFF94s>
11.640195

> <b_mmod_Minimization_Converged-MMFF94s>
1

> <r_mmod_RMS_Derivative-MMFF94s>
0.00741

> <i_mmod_Times_Found-MMFF94s>
26

> <r_mmod_Relative_Potential_Energy-MMFF94s>
0

> <i_mmod_Conformation-MMFF94s>
1

> <s_lp_label>
 _66

> <i_mmod_Serial_Number-MMFF94s>
66

$$$$
