CHEMBL1825138.smi
                    3D
 Structure written by MMmdl.
 52 55  0  0  1  0            999 V2000
    2.9358    2.1483   -3.5179 C   0  0  0  0  0  0
    2.4174    0.7201   -3.3337 C   0  0  1  0  0  0
    3.5134   -0.1894   -3.5691 O   0  0  0  0  0  0
    3.0806   -1.3778   -4.1015 C   0  0  0  0  0  0
    2.9986   -2.4879   -3.2634 C   0  0  0  0  0  0
    2.5595   -3.7069   -3.7795 C   0  0  0  0  0  0
    2.2409   -3.7341   -5.1361 C   0  0  0  0  0  0
    2.3429   -2.6741   -5.9798 N   0  0  0  0  0  0
    2.7866   -1.5169   -5.4607 C   0  0  0  0  0  0
    2.8882   -0.4521   -6.3376 N   0  0  0  0  0  0
    2.4253   -4.8911   -2.9516 C   0  0  0  0  0  0
    1.6332   -6.0505   -3.1156 C   0  0  0  0  0  0
    1.7966   -6.9343   -2.1291 N   0  0  0  0  0  0
    2.7018   -6.3526   -1.3211 N   0  0  0  0  0  0
    3.1065   -5.1245   -1.7744 C   0  0  0  0  0  0
    3.1676   -7.0146   -0.1036 C   0  0  0  0  0  0
    2.0438   -7.2313    0.9172 C   0  0  0  0  0  0
    1.2359   -8.4973    0.6491 C   0  0  0  0  0  0
    2.1124   -9.6639    0.5365 N   0  0  0  0  0  0
    3.0309   -9.5116   -0.5929 C   0  0  0  0  0  0
    3.9431   -8.3050   -0.3951 C   0  0  0  0  0  0
    1.7974    0.5274   -1.9513 C   0  0  0  0  0  0
    0.3915    0.4800   -1.8008 C   0  0  0  0  0  0
   -0.6999    0.6690   -3.1319 Cl  0  0  0  0  0  0
   -0.2067    0.2894   -0.5467 C   0  0  0  0  0  0
    0.5780    0.1494    0.5905 C   0  0  0  0  0  0
    1.9581    0.2093    0.4697 C   0  0  0  0  0  0
    2.6951    0.0788    1.5835 F   0  0  0  0  0  0
    2.5734    0.4007   -0.7758 C   0  0  0  0  0  0
    4.3047    0.4738   -0.7762 Cl  0  0  0  0  0  0
    3.7600    2.3830   -2.8380 H   0  0  0  0  0  0
    2.1410    2.8847   -3.3599 H   0  0  0  0  0  0
    3.3303    2.2764   -4.5321 H   0  0  0  0  0  0
    1.6679    0.5744   -4.1173 H   0  0  0  0  0  0
    3.2636   -2.3815   -2.2168 H   0  0  0  0  0  0
    1.8925   -4.6431   -5.6197 H   0  0  0  0  0  0
    2.6501   -0.7036   -7.2885 H   0  0  0  0  0  0
    3.6715    0.1699   -6.1953 H   0  0  0  0  0  0
    0.9374   -6.2887   -3.9100 H   0  0  0  0  0  0
    3.8404   -4.5441   -1.2325 H   0  0  0  0  0  0
    3.8768   -6.3027    0.3411 H   0  0  0  0  0  0
    1.3729   -6.3643    0.9507 H   0  0  0  0  0  0
    2.4954   -7.3153    1.9151 H   0  0  0  0  0  0
    0.5479   -8.6590    1.4867 H   0  0  0  0  0  0
    0.6132   -8.3944   -0.2462 H   0  0  0  0  0  0
    1.5339  -10.4894    0.3740 H   0  0  0  0  0  0
    3.6504  -10.4131   -0.6611 H   0  0  0  0  0  0
    2.4765   -9.4455   -1.5353 H   0  0  0  0  0  0
    4.6060   -8.5095    0.4567 H   0  0  0  0  0  0
    4.5906   -8.1830   -1.2719 H   0  0  0  0  0  0
   -1.2906    0.2519   -0.4538 H   0  0  0  0  0  0
    0.1265    0.0010    1.5666 H   0  0  0  0  0  0
  1  2  1  0  0  0
  1 31  1  0  0  0
  1 32  1  0  0  0
  1 33  1  0  0  0
  2 22  1  0  0  0
  2  3  1  0  0  0
  2 34  1  0  0  0
  3  4  1  0  0  0
  4  9  1  0  0  0
  4  5  2  0  0  0
  5  6  1  0  0  0
  5 35  1  0  0  0
  6  7  2  0  0  0
  6 11  1  0  0  0
  7  8  1  0  0  0
  7 36  1  0  0  0
  8  9  2  0  0  0
  9 10  1  0  0  0
 10 37  1  0  0  0
 10 38  1  0  0  0
 11 12  1  0  0  0
 11 15  2  0  0  0
 12 13  2  0  0  0
 12 39  1  0  0  0
 13 14  1  0  0  0
 14 15  1  0  0  0
 14 16  1  0  0  0
 15 40  1  0  0  0
 16 21  1  0  0  0
 16 17  1  0  0  0
 16 41  1  0  0  0
 17 18  1  0  0  0
 17 42  1  0  0  0
 17 43  1  0  0  0
 18 19  1  0  0  0
 18 44  1  0  0  0
 18 45  1  0  0  0
 19 20  1  0  0  0
 19 46  1  0  0  0
 20 21  1  0  0  0
 20 47  1  0  0  0
 20 48  1  0  0  0
 21 49  1  0  0  0
 21 50  1  0  0  0
 22 23  2  0  0  0
 22 29  1  0  0  0
 23 25  1  0  0  0
 23 24  1  0  0  0
 25 26  2  0  0  0
 25 51  1  0  0  0
 26 27  1  0  0  0
 26 52  1  0  0  0
 27 29  2  0  0  0
 27 28  1  0  0  0
 29 30  1  0  0  0
M  END
> <s_m_entry_id>
130

> <s_m_entry_name>
CHEMBL1825138.1

> <s_m_job_name>
mmod_csearch_24

> <s_lp_label>
 _2

> <r_mmod_Potential_Energy-MMFF94s>
96.403816

> <b_mmod_Minimization_Converged-MMFF94s>
1

> <r_mmod_RMS_Derivative-MMFF94s>
0.014037

> <i_mmod_Times_Found-MMFF94s>
99

> <r_mmod_Relative_Potential_Energy-MMFF94s>
0

> <i_mmod_Conformation-MMFF94s>
1

> <i_mmod_Serial_Number-MMFF94s>
2

$$$$
