CHEMBL458997.smi
                    3D
 Structure written by MMmdl.
 58 61  0  0  1  0            999 V2000
   -0.9749  -12.6115   -3.6596 C   0  0  0  0  0  0
   -1.7420  -12.0047   -2.6015 N   0  0  0  0  0  0
   -1.7174  -12.5191   -1.3211 C   0  0  0  0  0  0
   -1.0270  -13.4828   -1.0008 O   0  0  0  0  0  0
   -2.5428  -11.8103   -0.2969 C   0  0  0  0  0  0
   -3.7438  -11.1862   -0.6812 C   0  0  0  0  0  0
   -4.5131  -10.5008    0.2574 C   0  0  0  0  0  0
   -4.0938  -10.4421    1.5814 C   0  0  0  0  0  0
   -2.9132  -11.0800    1.9729 C   0  0  0  0  0  0
   -2.1203  -11.7854    1.0542 C   0  0  0  0  0  0
   -0.9276  -12.4251    1.4503 N   0  0  0  0  0  0
   -0.0666  -12.2166    2.5450 C   0  0  0  0  0  0
   -0.1563  -11.0687    3.2524 N   0  0  0  0  0  0
    0.6508  -10.8820    4.3077 C   0  0  0  0  0  0
    0.5960   -9.7259    5.0711 N   0  0  0  0  0  0
   -0.1206   -8.5223    4.9897 C   0  0  0  0  0  0
   -0.9465   -8.1877    3.9177 C   0  0  0  0  0  0
   -1.6546   -6.9784    3.8980 C   0  0  0  0  0  0
   -1.5742   -6.0597    4.9501 C   0  0  0  0  0  0
   -0.7294   -6.3938    6.0212 C   0  0  0  0  0  0
   -0.0130   -7.6004    6.0524 C   0  0  0  0  0  0
    0.8326   -7.9864    7.0706 O   0  0  0  0  0  0
    0.9794   -7.0934    8.1668 C   0  0  0  0  0  0
   -2.2693   -4.8538    4.9474 N   0  0  0  0  0  0
   -3.1054   -4.5349    6.1220 C   0  0  0  0  0  0
   -3.4132   -3.0300    6.1686 C   0  0  0  0  0  0
   -3.9974   -2.5661    4.9418 O   0  0  0  0  0  0
   -3.0889   -2.7948    3.8534 C   0  0  0  0  0  0
   -2.7728   -4.2885    3.6831 C   0  0  0  0  0  0
    1.5466  -11.7953    4.7136 N   0  0  0  0  0  0
    1.6236  -12.9353    3.9988 C   0  0  0  0  0  0
    0.8411  -13.2029    2.9018 C   0  0  0  0  0  0
    1.0136  -14.6873    2.0529 Cl  0  0  0  0  0  0
    0.0788  -12.3559   -3.5206 H   0  0  0  0  0  0
   -1.3288  -12.2205   -4.6162 H   0  0  0  0  0  0
   -1.0932  -13.6982   -3.6334 H   0  0  0  0  0  0
   -2.2077  -11.1273   -2.7874 H   0  0  0  0  0  0
   -4.1053  -11.2483   -1.7036 H   0  0  0  0  0  0
   -5.4423  -10.0215   -0.0405 H   0  0  0  0  0  0
   -4.6885   -9.9124    2.3219 H   0  0  0  0  0  0
   -2.6305  -11.0359    3.0222 H   0  0  0  0  0  0
   -0.5632  -13.0819    0.7528 H   0  0  0  0  0  0
    1.2199   -9.7828    5.8662 H   0  0  0  0  0  0
   -1.0527   -8.8524    3.0664 H   0  0  0  0  0  0
   -2.2896   -6.7880    3.0377 H   0  0  0  0  0  0
   -0.6147   -5.6720    6.8212 H   0  0  0  0  0  0
    0.0253   -6.9378    8.6809 H   0  0  0  0  0  0
    1.6696   -7.5529    8.8810 H   0  0  0  0  0  0
    1.4186   -6.1432    7.8457 H   0  0  0  0  0  0
   -2.6305   -4.8163    7.0672 H   0  0  0  0  0  0
   -4.0447   -5.0958    6.0387 H   0  0  0  0  0  0
   -4.1253   -2.8228    6.9736 H   0  0  0  0  0  0
   -2.5042   -2.4508    6.3715 H   0  0  0  0  0  0
   -3.5581   -2.4092    2.9428 H   0  0  0  0  0  0
   -2.1730   -2.2167    4.0263 H   0  0  0  0  0  0
   -3.6867   -4.8207    3.3917 H   0  0  0  0  0  0
   -2.0321   -4.3926    2.8816 H   0  0  0  0  0  0
    2.3614  -13.6486    4.3536 H   0  0  0  0  0  0
  1  2  1  0  0  0
  1 34  1  0  0  0
  1 35  1  0  0  0
  1 36  1  0  0  0
  2  3  1  0  0  0
  2 37  1  0  0  0
  3  5  1  0  0  0
  3  4  2  0  0  0
  5  6  2  0  0  0
  5 10  1  0  0  0
  6  7  1  0  0  0
  6 38  1  0  0  0
  7  8  2  0  0  0
  7 39  1  0  0  0
  8  9  1  0  0  0
  8 40  1  0  0  0
  9 10  2  0  0  0
  9 41  1  0  0  0
 10 11  1  0  0  0
 11 12  1  0  0  0
 11 42  1  0  0  0
 12 32  1  0  0  0
 12 13  2  0  0  0
 13 14  1  0  0  0
 14 30  2  0  0  0
 14 15  1  0  0  0
 15 16  1  0  0  0
 15 43  1  0  0  0
 16 17  2  0  0  0
 16 21  1  0  0  0
 17 18  1  0  0  0
 17 44  1  0  0  0
 18 19  2  0  0  0
 18 45  1  0  0  0
 19 20  1  0  0  0
 19 24  1  0  0  0
 20 21  2  0  0  0
 20 46  1  0  0  0
 21 22  1  0  0  0
 22 23  1  0  0  0
 23 47  1  0  0  0
 23 48  1  0  0  0
 23 49  1  0  0  0
 24 29  1  0  0  0
 24 25  1  0  0  0
 25 26  1  0  0  0
 25 50  1  0  0  0
 25 51  1  0  0  0
 26 27  1  0  0  0
 26 52  1  0  0  0
 26 53  1  0  0  0
 27 28  1  0  0  0
 28 29  1  0  0  0
 28 54  1  0  0  0
 28 55  1  0  0  0
 29 56  1  0  0  0
 29 57  1  0  0  0
 30 31  1  0  0  0
 31 32  2  0  0  0
 31 58  1  0  0  0
 32 33  1  0  0  0
M  END
> <s_m_entry_id>
116

> <s_m_entry_name>
CHEMBL458997.1

> <s_m_job_name>
mmod_csearch_22

> <s_lp_label>
 _4

> <r_mmod_Potential_Energy-MMFF94s>
247.269867

> <b_mmod_Minimization_Converged-MMFF94s>
1

> <r_mmod_RMS_Derivative-MMFF94s>
0.014338

> <i_mmod_Times_Found-MMFF94s>
149

> <r_mmod_Relative_Potential_Energy-MMFF94s>
0

> <i_mmod_Conformation-MMFF94s>
1

> <i_mmod_Serial_Number-MMFF94s>
4

$$$$
