CHEMBL422897.smi
                    3D
 Structure written by MMmdl.
 48 51  0  0  1  0            999 V2000
  -10.8840   -9.9119   -5.5907 C   0  0  0  0  0  0
   -9.6731  -10.5084   -5.0255 N   0  0  0  0  0  0
   -9.7135  -10.4585   -3.5578 C   0  0  0  0  0  0
   -8.4039  -10.9978   -2.9808 C   0  0  0  0  0  0
   -8.1677  -12.4569   -3.4127 C   0  0  1  0  0  0
   -8.2424  -12.5767   -4.9491 C   0  0  1  0  0  0
   -8.2997  -13.9695   -5.3131 O   0  0  0  0  0  0
   -9.5118  -11.8889   -5.4952 C   0  0  0  0  0  0
   -6.9236  -13.1551   -2.8449 C   0  0  0  0  0  0
   -6.9825  -14.5419   -2.5884 C   0  0  0  0  0  0
   -8.0665  -15.2889   -2.9685 O   0  0  0  0  0  0
   -5.9392  -15.2417   -1.9864 C   0  0  0  0  0  0
   -4.7651  -14.5751   -1.6757 C   0  0  0  0  0  0
   -3.7681  -15.3139   -1.0985 O   0  0  0  0  0  0
   -4.6361  -13.2179   -1.9807 C   0  0  0  0  0  0
   -3.3780  -12.5057   -1.7079 C   0  0  0  0  0  0
   -2.4308  -13.0644   -1.1645 O   0  0  0  0  0  0
   -3.2957  -11.0998   -2.1171 C   0  0  0  0  0  0
   -4.3726  -10.5413   -2.6810 C   0  0  0  0  0  0
   -5.5693  -11.1900   -2.9038 O   0  0  0  0  0  0
   -5.7008  -12.5135   -2.5648 C   0  0  0  0  0  0
   -4.3620   -9.1380   -3.1259 C   0  0  0  0  0  0
   -4.2027   -8.1228   -2.1664 C   0  0  0  0  0  0
   -4.2038   -6.7773   -2.5421 C   0  0  0  0  0  0
   -4.3664   -6.4268   -3.8799 C   0  0  0  0  0  0
   -4.5278   -7.4210   -4.8445 C   0  0  0  0  0  0
   -4.5268   -8.7699   -4.4731 C   0  0  0  0  0  0
   -4.7073   -9.9437   -5.7329 Cl  0  0  0  0  0  0
  -10.8369   -9.9106   -6.6853 H   0  0  0  0  0  0
  -10.9779   -8.8654   -5.2799 H   0  0  0  0  0  0
  -11.7910  -10.4457   -5.2845 H   0  0  0  0  0  0
  -10.5649  -11.0270   -3.1616 H   0  0  0  0  0  0
   -9.8304   -9.4198   -3.2252 H   0  0  0  0  0  0
   -8.4253  -10.9272   -1.8867 H   0  0  0  0  0  0
   -7.6078  -10.3355   -3.3324 H   0  0  0  0  0  0
   -9.0259  -13.0079   -2.9977 H   0  0  0  0  0  0
   -7.3445  -12.1429   -5.4064 H   0  0  0  0  0  0
   -8.1519  -14.0052   -6.2774 H   0  0  0  0  0  0
   -9.4565  -11.9063   -6.5916 H   0  0  0  0  0  0
  -10.3906  -12.4954   -5.2331 H   0  0  0  0  0  0
   -8.3286  -14.9560   -3.8567 H   0  0  0  0  0  0
   -6.0357  -16.3053   -1.7887 H   0  0  0  0  0  0
   -2.9967  -14.7236   -0.9436 H   0  0  0  0  0  0
   -2.3593  -10.5838   -1.9504 H   0  0  0  0  0  0
   -4.0877   -8.3723   -1.1130 H   0  0  0  0  0  0
   -4.0822   -6.0028   -1.7882 H   0  0  0  0  0  0
   -4.3691   -5.3795   -4.1727 H   0  0  0  0  0  0
   -4.6534   -7.1389   -5.8871 H   0  0  0  0  0  0
  1  2  1  0  0  0
  1 29  1  0  0  0
  1 30  1  0  0  0
  1 31  1  0  0  0
  2  3  1  0  0  0
  2  8  1  0  0  0
  3  4  1  0  0  0
  3 32  1  0  0  0
  3 33  1  0  0  0
  4  5  1  0  0  0
  4 34  1  0  0  0
  4 35  1  0  0  0
  5  9  1  0  0  0
  5  6  1  0  0  0
  5 36  1  0  0  0
  6  7  1  0  0  0
  6  8  1  0  0  0
  6 37  1  0  0  0
  7 38  1  0  0  0
  8 39  1  0  0  0
  8 40  1  0  0  0
  9 10  2  0  0  0
  9 21  1  0  0  0
 10 12  1  0  0  0
 10 11  1  0  0  0
 11 41  1  0  0  0
 12 13  2  0  0  0
 12 42  1  0  0  0
 13 15  1  0  0  0
 13 14  1  0  0  0
 14 43  1  0  0  0
 15 16  1  0  0  0
 15 21  2  0  0  0
 16 18  1  0  0  0
 16 17  2  0  0  0
 18 19  2  0  0  0
 18 44  1  0  0  0
 19 22  1  0  0  0
 19 20  1  0  0  0
 20 21  1  0  0  0
 22 23  2  0  0  0
 22 27  1  0  0  0
 23 24  1  0  0  0
 23 45  1  0  0  0
 24 25  2  0  0  0
 24 46  1  0  0  0
 25 26  1  0  0  0
 25 47  1  0  0  0
 26 27  2  0  0  0
 26 48  1  0  0  0
 27 28  1  0  0  0
M  END
> <s_m_entry_id>
10114

> <s_m_job_name>
mmod_csearch_12

> <r_mmod_Potential_Energy-MMFF94s>
320.179504

> <b_mmod_Minimization_Converged-MMFF94s>
1

> <r_mmod_RMS_Derivative-MMFF94s>
0.003905

> <i_mmod_Times_Found-MMFF94s>
31

> <r_mmod_Relative_Potential_Energy-MMFF94s>
0

> <i_mmod_Conformation-MMFF94s>
1

> <s_lp_label>
 _83

> <i_mmod_Serial_Number-MMFF94s>
83

$$$$
