CHEMBL1975903.smi
                    3D
 Structure written by MMmdl.
 42 44  0  0  1  0            999 V2000
   -5.8054   -4.1865   -0.0668 C   0  0  0  0  0  0
   -5.2938   -5.2846   -0.8117 O   0  0  0  0  0  0
   -4.8404   -5.0363   -2.0851 C   0  0  0  0  0  0
   -5.0364   -3.8160   -2.7505 C   0  0  0  0  0  0
   -4.5298   -3.6132   -4.0357 C   0  0  0  0  0  0
   -3.8236   -4.6252   -4.6713 C   0  0  0  0  0  0
   -3.6326   -5.8448   -4.0229 C   0  0  0  0  0  0
   -4.1387   -6.0848   -2.7260 C   0  0  0  0  0  0
   -3.8947   -7.4032   -2.1018 C   0  0  0  0  0  0
   -4.8612   -8.1172   -1.4277 C   0  0  0  0  0  0
   -4.4720   -9.3349   -0.9288 C   0  0  0  0  0  0
   -3.2350   -9.8419   -1.0785 N   0  0  0  0  0  0
   -2.3529   -9.0988   -1.7625 C   0  0  0  0  0  0
   -1.0846   -9.6572   -1.9046 N   0  0  0  0  0  0
    0.0745   -9.2451   -2.5698 C   0  0  0  0  0  0
    1.2601   -9.9761   -2.3841 C   0  0  0  0  0  0
    2.4596   -9.5970   -2.9992 C   0  0  0  0  0  0
    2.5011   -8.4653   -3.8078 C   0  0  0  0  0  0
    1.3349   -7.7258   -3.9906 C   0  0  0  0  0  0
    0.1325   -8.1155   -3.3901 C   0  0  0  0  0  0
    1.3444   -6.2647   -4.9973 S   0  0  0  0  0  0
    2.6968   -6.0766   -5.4903 O   0  0  0  0  0  0
    0.2270   -6.3651   -5.9167 O   0  0  0  0  0  0
    1.0103   -4.9560   -3.8465 C   0  0  0  0  0  0
   -2.6470   -7.8963   -2.2735 N   0  0  0  0  0  0
   -6.0189   -4.5419    0.9460 H   0  0  0  0  0  0
   -6.7456   -3.8262   -0.4965 H   0  0  0  0  0  0
   -5.0686   -3.3803    0.0126 H   0  0  0  0  0  0
   -5.5825   -2.9970   -2.2942 H   0  0  0  0  0  0
   -4.6867   -2.6624   -4.5389 H   0  0  0  0  0  0
   -3.4224   -4.4744   -5.6707 H   0  0  0  0  0  0
   -3.0805   -6.6284   -4.5423 H   0  0  0  0  0  0
   -5.8708   -7.7524   -1.2987 H   0  0  0  0  0  0
   -5.1676   -9.9622   -0.3794 H   0  0  0  0  0  0
   -1.0602  -10.5457   -1.4268 H   0  0  0  0  0  0
    1.2610  -10.8598   -1.7493 H   0  0  0  0  0  0
    3.3593  -10.1872   -2.8425 H   0  0  0  0  0  0
    3.4335   -8.1737   -4.2856 H   0  0  0  0  0  0
   -0.7591   -7.5288   -3.5856 H   0  0  0  0  0  0
    1.7788   -4.9594   -3.0712 H   0  0  0  0  0  0
    0.0189   -5.0975   -3.4128 H   0  0  0  0  0  0
    1.0402   -4.0108   -4.3931 H   0  0  0  0  0  0
  1  2  1  0  0  0
  1 26  1  0  0  0
  1 27  1  0  0  0
  1 28  1  0  0  0
  2  3  1  0  0  0
  3  4  2  0  0  0
  3  8  1  0  0  0
  4  5  1  0  0  0
  4 29  1  0  0  0
  5  6  2  0  0  0
  5 30  1  0  0  0
  6  7  1  0  0  0
  6 31  1  0  0  0
  7  8  2  0  0  0
  7 32  1  0  0  0
  8  9  1  0  0  0
  9 25  1  0  0  0
  9 10  2  0  0  0
 10 11  1  0  0  0
 10 33  1  0  0  0
 11 12  2  0  0  0
 11 34  1  0  0  0
 12 13  1  0  0  0
 13 25  2  0  0  0
 13 14  1  0  0  0
 14 15  1  0  0  0
 14 35  1  0  0  0
 15 16  2  0  0  0
 15 20  1  0  0  0
 16 17  1  0  0  0
 16 36  1  0  0  0
 17 18  2  0  0  0
 17 37  1  0  0  0
 18 19  1  0  0  0
 18 38  1  0  0  0
 19 20  2  0  0  0
 19 21  1  0  0  0
 20 39  1  0  0  0
 21 24  1  0  0  0
 21 23  2  0  0  0
 21 22  2  0  0  0
 24 40  1  0  0  0
 24 41  1  0  0  0
 24 42  1  0  0  0
M  END
> <s_m_entry_id>
10094

> <s_m_job_name>
mmod_csearch_12

> <r_mmod_Potential_Energy-MMFF94s>
8.422728

> <b_mmod_Minimization_Converged-MMFF94s>
1

> <r_mmod_RMS_Derivative-MMFF94s>
0.004935

> <i_mmod_Times_Found-MMFF94s>
55

> <r_mmod_Relative_Potential_Energy-MMFF94s>
0

> <i_mmod_Conformation-MMFF94s>
1

> <s_lp_label>
 _63

> <i_mmod_Serial_Number-MMFF94s>
63

$$$$
