CHEMBL574738.smi
                    3D
 Structure written by MMmdl.
 68 71  0  0  1  0            999 V2000
    8.6414   -5.3431   -0.1942 C   0  0  0  0  0  0
    7.9779   -3.9956    0.0683 C   0  0  0  0  0  0
    7.5735   -3.3069   -1.1662 N   0  0  0  0  0  0
    8.7356   -2.8531   -1.9582 C   0  0  0  0  0  0
    8.3153   -2.0515   -3.2122 C   0  0  0  0  0  0
    7.4791   -0.8810   -2.8801 N   0  0  0  0  0  0
    7.0768   -0.1768   -4.1012 C   0  0  0  0  0  0
    6.4953    1.1950   -3.8115 C   0  0  0  0  0  0
    5.1833    1.4726   -4.2301 C   0  0  0  0  0  0
    4.5878    2.7129   -3.9792 C   0  0  0  0  0  0
    5.2853    3.7068   -3.3006 C   0  0  0  0  0  0
    4.7630    4.9835   -3.0030 N   0  0  0  0  0  0
    3.4858    5.4631   -3.2675 C   0  0  0  0  0  0
    2.5835    4.8070   -3.7698 O   0  0  0  0  0  0
    3.3827    6.7936   -2.8824 N   0  0  0  0  0  0
    2.2379    7.6184   -2.9190 C   0  0  0  0  0  0
    0.9678    7.1815   -3.3026 C   0  0  0  0  0  0
   -0.1174    8.0652   -3.3028 C   0  0  0  0  0  0
    0.0590    9.3871   -2.9027 C   0  0  0  0  0  0
   -1.0220   10.2299   -2.9773 O   0  0  0  0  0  0
   -1.4357   10.8473   -1.7987 C   0  0  0  0  0  0
   -2.3371   11.8781   -1.9503 C   0  0  0  0  0  0
   -2.7780   12.4858   -0.7971 C   0  0  0  0  0  0
   -3.6662   13.5256   -0.7767 N   0  0  0  0  0  0
   -4.2843   14.1290   -1.9248 C   0  0  0  0  0  0
   -2.3520   12.0843    0.4104 N   0  0  0  0  0  0
   -1.4842   11.0620    0.4453 C   0  0  0  0  0  0
   -0.9925   10.4089   -0.6094 N   0  0  0  0  0  0
    1.3243    9.8434   -2.5389 C   0  0  0  0  0  0
    2.4059    8.9577   -2.5370 C   0  0  0  0  0  0
    6.5963    3.4405   -2.8855 C   0  0  0  0  0  0
    7.2229    2.1996   -3.1382 C   0  0  0  0  0  0
    8.6410    1.9931   -2.6428 C   0  0  0  0  0  0
    9.2928    3.1838   -2.4562 F   0  0  0  0  0  0
    8.7079    1.3677   -1.4357 F   0  0  0  0  0  0
    9.4410    1.2981   -3.4983 F   0  0  0  0  0  0
    6.3144   -1.3351   -2.0922 C   0  0  0  0  0  0
    6.7375   -2.1316   -0.8371 C   0  0  0  0  0  0
    8.7965   -5.8720    0.7521 H   0  0  0  0  0  0
    9.6199   -5.2310   -0.6704 H   0  0  0  0  0  0
    8.0141   -5.9750   -0.8317 H   0  0  0  0  0  0
    8.6429   -3.3684    0.6754 H   0  0  0  0  0  0
    7.0850   -4.1935    0.6749 H   0  0  0  0  0  0
    9.3150   -3.7162   -2.3034 H   0  0  0  0  0  0
    9.4024   -2.2331   -1.3438 H   0  0  0  0  0  0
    9.2280   -1.7151   -3.7190 H   0  0  0  0  0  0
    7.7844   -2.7198   -3.9039 H   0  0  0  0  0  0
    6.3680   -0.7835   -4.6809 H   0  0  0  0  0  0
    7.9388   -0.0219   -4.7630 H   0  0  0  0  0  0
    4.6011    0.7167   -4.7550 H   0  0  0  0  0  0
    3.5714    2.8637   -4.3300 H   0  0  0  0  0  0
    5.3817    5.6060   -2.5088 H   0  0  0  0  0  0
    4.2294    7.2409   -2.5708 H   0  0  0  0  0  0
    0.7822    6.1561   -3.6057 H   0  0  0  0  0  0
   -1.0984    7.7129   -3.6087 H   0  0  0  0  0  0
   -2.6685   12.1793   -2.9326 H   0  0  0  0  0  0
   -3.8920   13.8587    0.1526 H   0  0  0  0  0  0
   -3.5353   14.5632   -2.5948 H   0  0  0  0  0  0
   -4.9510   14.9352   -1.6035 H   0  0  0  0  0  0
   -4.8849   13.4007   -2.4793 H   0  0  0  0  0  0
   -1.1516   10.7369    1.4247 H   0  0  0  0  0  0
    1.4719   10.8797   -2.2499 H   0  0  0  0  0  0
    3.3793    9.3350   -2.2360 H   0  0  0  0  0  0
    7.1574    4.2063   -2.3512 H   0  0  0  0  0  0
    5.7287   -0.4725   -1.7542 H   0  0  0  0  0  0
    5.6523   -1.9600   -2.7068 H   0  0  0  0  0  0
    7.2709   -1.4602   -0.1502 H   0  0  0  0  0  0
    5.8260   -2.4649   -0.3260 H   0  0  0  0  0  0
  1  2  1  0  0  0
  1 39  1  0  0  0
  1 40  1  0  0  0
  1 41  1  0  0  0
  2  3  1  0  0  0
  2 42  1  0  0  0
  2 43  1  0  0  0
  3 38  1  0  0  0
  3  4  1  0  0  0
  4  5  1  0  0  0
  4 44  1  0  0  0
  4 45  1  0  0  0
  5  6  1  0  0  0
  5 46  1  0  0  0
  5 47  1  0  0  0
  6 37  1  0  0  0
  6  7  1  0  0  0
  7  8  1  0  0  0
  7 48  1  0  0  0
  7 49  1  0  0  0
  8  9  2  0  0  0
  8 32  1  0  0  0
  9 10  1  0  0  0
  9 50  1  0  0  0
 10 11  2  0  0  0
 10 51  1  0  0  0
 11 31  1  0  0  0
 11 12  1  0  0  0
 12 13  1  0  0  0
 12 52  1  0  0  0
 13 15  1  0  0  0
 13 14  2  0  0  0
 15 16  1  0  0  0
 15 53  1  0  0  0
 16 17  2  0  0  0
 16 30  1  0  0  0
 17 18  1  0  0  0
 17 54  1  0  0  0
 18 19  2  0  0  0
 18 55  1  0  0  0
 19 29  1  0  0  0
 19 20  1  0  0  0
 20 21  1  0  0  0
 21 22  2  0  0  0
 21 28  1  0  0  0
 22 23  1  0  0  0
 22 56  1  0  0  0
 23 26  2  0  0  0
 23 24  1  0  0  0
 24 25  1  0  0  0
 24 57  1  0  0  0
 25 58  1  0  0  0
 25 59  1  0  0  0
 25 60  1  0  0  0
 26 27  1  0  0  0
 27 28  2  0  0  0
 27 61  1  0  0  0
 29 30  2  0  0  0
 29 62  1  0  0  0
 30 63  1  0  0  0
 31 32  2  0  0  0
 31 64  1  0  0  0
 32 33  1  0  0  0
 33 36  1  0  0  0
 33 35  1  0  0  0
 33 34  1  0  0  0
 37 38  1  0  0  0
 37 65  1  0  0  0
 37 66  1  0  0  0
 38 67  1  0  0  0
 38 68  1  0  0  0
M  END
> <s_m_entry_id>
125

> <s_m_entry_name>
CHEMBL574738.1

> <s_m_job_name>
mmod_csearch_23

> <s_lp_label>
 _5

> <r_mmod_Potential_Energy-MMFF94s>
-24.967913

> <b_mmod_Minimization_Converged-MMFF94s>
1

> <r_mmod_RMS_Derivative-MMFF94s>
0.01193

> <i_mmod_Times_Found-MMFF94s>
22

> <r_mmod_Relative_Potential_Energy-MMFF94s>
0

> <i_mmod_Conformation-MMFF94s>
1

> <i_mmod_Serial_Number-MMFF94s>
5

$$$$
