CHEMBL1996048.smi
                    3D
 Structure written by MMmdl.
 43 45  0  0  1  0            999 V2000
    0.6872    0.1837    0.4258 C   0  0  0  0  0  0
    2.1296    0.2235    0.0179 C   0  0  0  0  0  0
    2.4846    0.2652   -1.3338 C   0  0  0  0  0  0
    3.8295    0.3338   -1.7140 C   0  0  0  0  0  0
    4.8469    0.3717   -0.7513 C   0  0  0  0  0  0
    4.4833    0.3491    0.6012 C   0  0  0  0  0  0
    3.1393    0.2794    0.9831 C   0  0  0  0  0  0
    6.2582    0.4427   -1.1379 C   0  0  0  0  0  0
    7.3498    0.9961   -0.4902 C   0  0  0  0  0  0
    8.5210    0.7998   -1.2867 C   0  0  0  0  0  0
    9.8858    1.1608   -1.1292 C   0  0  0  0  0  0
   10.3060    1.8446   -0.0110 N   0  0  0  0  0  0
   11.6306    2.3964    0.2018 C   0  0  0  0  0  0
   11.7144    3.0231    1.6118 C   0  0  0  0  0  0
   10.5554    3.8690    1.9303 N   0  0  0  0  0  0
   10.7599    0.7796   -2.1636 C   0  0  0  0  0  0
   10.3264    0.0773   -3.2943 C   0  0  0  0  0  0
    8.9843   -0.2883   -3.4461 C   0  0  0  0  0  0
    8.4517   -1.0388   -4.6160 C   0  0  0  0  0  0
    7.2448   -1.1623   -4.8011 O   0  0  0  0  0  0
    9.3413   -1.6167   -5.4766 N   0  0  0  0  0  0
    8.1089    0.1032   -2.4206 C   0  0  0  0  0  0
    6.7491   -0.0972   -2.3029 N   0  0  0  0  0  0
    6.2082   -0.5907   -3.0039 H   0  0  0  0  0  0
    0.0862   -0.3522   -0.3163 H   0  0  0  0  0  0
    0.2988    1.2017    0.5276 H   0  0  0  0  0  0
    0.5654   -0.3390    1.3803 H   0  0  0  0  0  0
    1.7170    0.2478   -2.1043 H   0  0  0  0  0  0
    4.0644    0.3770   -2.7746 H   0  0  0  0  0  0
    5.2454    0.3758    1.3763 H   0  0  0  0  0  0
    2.8900    0.2666    2.0416 H   0  0  0  0  0  0
    7.3164    1.5099    0.4612 H   0  0  0  0  0  0
    9.6109    2.1215    0.6794 H   0  0  0  0  0  0
   11.8315    3.1683   -0.5504 H   0  0  0  0  0  0
   12.3981    1.6189    0.1175 H   0  0  0  0  0  0
   12.6357    3.6099    1.6925 H   0  0  0  0  0  0
   11.7631    2.2243    2.3601 H   0  0  0  0  0  0
   10.7417    4.3909    2.7852 H   0  0  0  0  0  0
   10.4239    4.5559    1.1876 H   0  0  0  0  0  0
   11.8144    1.0342   -2.1003 H   0  0  0  0  0  0
   11.0630   -0.1602   -4.0541 H   0  0  0  0  0  0
   10.3414   -1.6183   -5.3557 H   0  0  0  0  0  0
    8.9555   -2.1276   -6.2599 H   0  0  0  0  0  0
  1  2  1  0  0  0
  1 25  1  0  0  0
  1 26  1  0  0  0
  1 27  1  0  0  0
  2  3  2  0  0  0
  2  7  1  0  0  0
  3  4  1  0  0  0
  3 28  1  0  0  0
  4  5  2  0  0  0
  4 29  1  0  0  0
  5  6  1  0  0  0
  5  8  1  0  0  0
  6  7  2  0  0  0
  6 30  1  0  0  0
  7 31  1  0  0  0
  8 23  1  0  0  0
  8  9  2  0  0  0
  9 10  1  0  0  0
  9 32  1  0  0  0
 10 22  1  0  0  0
 10 11  2  0  0  0
 11 16  1  0  0  0
 11 12  1  0  0  0
 12 13  1  0  0  0
 12 33  1  0  0  0
 13 14  1  0  0  0
 13 34  1  0  0  0
 13 35  1  0  0  0
 14 15  1  0  0  0
 14 36  1  0  0  0
 14 37  1  0  0  0
 15 38  1  0  0  0
 15 39  1  0  0  0
 16 17  2  0  0  0
 16 40  1  0  0  0
 17 18  1  0  0  0
 17 41  1  0  0  0
 18 22  2  0  0  0
 18 19  1  0  0  0
 19 21  1  0  0  0
 19 20  2  0  0  0
 21 42  1  0  0  0
 21 43  1  0  0  0
 22 23  1  0  0  0
 23 24  1  0  0  0
M  END
> <s_m_entry_id>
182

> <s_m_entry_name>
CHEMBL1996048.1

> <s_m_job_name>
mmod_csearch_27

> <s_lp_label>
 _31

> <r_mmod_Potential_Energy-MMFF94s>
170.165512

> <b_mmod_Minimization_Converged-MMFF94s>
1

> <r_mmod_RMS_Derivative-MMFF94s>
0.010447

> <i_mmod_Times_Found-MMFF94s>
162

> <r_mmod_Relative_Potential_Energy-MMFF94s>
0

> <i_mmod_Conformation-MMFF94s>
1

> <i_mmod_Serial_Number-MMFF94s>
31

$$$$
