CHEMBL1992673.smi
                    3D
 Structure written by MMmdl.
 20 22  0  0  1  0            999 V2000
    1.0459    0.2312    0.0533 Cl  0  0  0  0  0  0
    2.7650    0.1744    0.0535 C   0  0  0  0  0  0
    3.4154   -1.0644    0.0542 C   0  0  0  0  0  0
    4.8142   -1.1318    0.0543 C   0  0  0  0  0  0
    5.5598    0.0453    0.0537 C   0  0  0  0  0  0
    6.9665   -0.0156    0.0538 N   0  0  0  0  0  0
    7.8152    1.0774    0.0532 C   0  0  0  0  0  0
    9.0370    1.0147    0.0533 O   0  0  0  0  0  0
    7.1254    2.2999    0.0524 N   0  0  0  0  0  0
    7.7307    3.5112    0.0518 N   0  0  0  0  0  0
    6.6839    4.3300    0.0513 C   0  0  0  0  0  0
    5.4638    3.7222    0.0515 N   0  0  0  0  0  0
    5.7312    2.4189    0.0523 C   0  0  0  0  0  0
    4.8981    1.2841    0.0529 C   0  0  0  0  0  0
    3.4960    1.3592    0.0528 C   0  0  0  0  0  0
    2.8344   -1.9842    0.0548 H   0  0  0  0  0  0
    5.2979   -2.1051    0.0550 H   0  0  0  0  0  0
    7.4291   -0.9174    0.0543 H   0  0  0  0  0  0
    6.8104    5.4058    0.0507 H   0  0  0  0  0  0
    2.9955    2.3245    0.0522 H   0  0  0  0  0  0
  1  2  1  0  0  0
  2  3  2  0  0  0
  2 15  1  0  0  0
  3  4  1  0  0  0
  3 16  1  0  0  0
  4  5  2  0  0  0
  4 17  1  0  0  0
  5  6  1  0  0  0
  5 14  1  0  0  0
  6  7  1  0  0  0
  6 18  1  0  0  0
  7  9  1  0  0  0
  7  8  2  0  0  0
  9 10  1  0  0  0
  9 13  1  0  0  0
 10 11  2  0  0  0
 11 12  1  0  0  0
 11 19  1  0  0  0
 12 13  2  0  0  0
 13 14  1  0  0  0
 14 15  2  0  0  0
 15 20  1  0  0  0
M  END
> <s_m_entry_id>
756

> <s_m_job_name>
mmod_csearch_9

> <r_mmod_Potential_Energy-MMFF94s>
271.280457

> <b_mmod_Minimization_Converged-MMFF94s>
1

> <r_mmod_RMS_Derivative-MMFF94s>
0.002441

> <i_mmod_Times_Found-MMFF94s>
1

> <r_mmod_Relative_Potential_Energy-MMFF94s>
0

> <i_mmod_Conformation-MMFF94s>
1

> <s_lp_label>
 _16

> <i_mmod_Serial_Number-MMFF94s>
16

$$$$
