CHEMBL1988692.smi
                    3D
 Structure written by MMmdl.
 36 38  0  0  1  0            999 V2000
    2.1097   -1.7224    1.5474 C   0  0  0  0  0  0
    2.0856   -1.1516    0.1332 C   0  0  0  0  0  0
    0.9875   -0.0998   -0.0063 C   0  0  0  0  0  0
    3.3702   -0.5395   -0.1665 N   0  0  0  0  0  0
    4.4396   -1.2300   -0.6794 C   0  0  0  0  0  0
    4.4026   -2.5110   -0.9807 N   0  0  0  0  0  0
    5.6426   -2.8523   -1.4563 N   0  0  0  0  0  0
    6.5615   -1.8247   -1.4957 C   0  0  0  0  0  0
    7.7175   -1.8696   -1.8700 O   0  0  0  0  0  0
    5.7995   -0.6694   -0.9759 C   0  0  0  0  0  0
    6.1241    0.6155   -0.7738 C   0  0  0  0  0  0
    7.3637    1.2702   -1.0104 C   0  0  0  0  0  0
    7.7296    2.5912   -0.8138 C   0  0  0  0  0  0
    9.0867    2.7512   -1.2038 C   0  0  0  0  0  0
    9.9813    3.8381   -1.2290 C   0  0  0  0  0  0
   11.2884    3.6370   -1.6886 C   0  0  0  0  0  0
   11.7053    2.3782   -2.1173 C   0  0  0  0  0  0
   10.8330    1.2857   -2.1005 C   0  0  0  0  0  0
    9.5307    1.5060   -1.6378 C   0  0  0  0  0  0
    8.4738    0.6316   -1.5114 N   0  0  0  0  0  0
    8.5292   -0.3504   -1.7616 H   0  0  0  0  0  0
    2.8831   -2.4915    1.6471 H   0  0  0  0  0  0
    1.1469   -2.1788    1.8000 H   0  0  0  0  0  0
    2.3228   -0.9436    2.2883 H   0  0  0  0  0  0
    1.8714   -1.9562   -0.5803 H   0  0  0  0  0  0
    1.1397    0.7338    0.6886 H   0  0  0  0  0  0
    0.0030   -0.5350    0.1950 H   0  0  0  0  0  0
    0.9741    0.3142   -1.0206 H   0  0  0  0  0  0
    3.4802    0.4269    0.1096 H   0  0  0  0  0  0
    5.8391   -3.8009   -1.7495 H   0  0  0  0  0  0
    5.3552    1.2727   -0.3775 H   0  0  0  0  0  0
    7.0871    3.3713   -0.4272 H   0  0  0  0  0  0
    9.6639    4.8217   -0.8968 H   0  0  0  0  0  0
   11.9837    4.4723   -1.7105 H   0  0  0  0  0  0
   12.7246    2.2413   -2.4710 H   0  0  0  0  0  0
   11.1570    0.3052   -2.4343 H   0  0  0  0  0  0
  1  2  1  0  0  0
  1 22  1  0  0  0
  1 23  1  0  0  0
  1 24  1  0  0  0
  2  4  1  0  0  0
  2  3  1  0  0  0
  2 25  1  0  0  0
  3 26  1  0  0  0
  3 27  1  0  0  0
  3 28  1  0  0  0
  4  5  1  0  0  0
  4 29  1  0  0  0
  5  6  2  0  0  0
  5 10  1  0  0  0
  6  7  1  0  0  0
  7  8  1  0  0  0
  7 30  1  0  0  0
  8 10  1  0  0  0
  8  9  2  0  0  0
 10 11  2  0  0  0
 11 12  1  0  0  0
 11 31  1  0  0  0
 12 20  1  0  0  0
 12 13  2  0  0  0
 13 14  1  0  0  0
 13 32  1  0  0  0
 14 19  1  0  0  0
 14 15  2  0  0  0
 15 16  1  0  0  0
 15 33  1  0  0  0
 16 17  2  0  0  0
 16 34  1  0  0  0
 17 18  1  0  0  0
 17 35  1  0  0  0
 18 19  2  0  0  0
 18 36  1  0  0  0
 19 20  1  0  0  0
 20 21  1  0  0  0
M  END
> <s_m_entry_id>
169

> <s_m_entry_name>
CHEMBL1988692.1

> <s_m_job_name>
mmod_csearch_27

> <s_lp_label>
 _17

> <r_mmod_Potential_Energy-MMFF94s>
83.408134

> <b_mmod_Minimization_Converged-MMFF94s>
1

> <r_mmod_RMS_Derivative-MMFF94s>
0.008566

> <i_mmod_Times_Found-MMFF94s>
709

> <r_mmod_Relative_Potential_Energy-MMFF94s>
0

> <i_mmod_Conformation-MMFF94s>
1

> <i_mmod_Serial_Number-MMFF94s>
17

$$$$
