CHEMBL1984500.smi
                    3D
 Structure written by MMmdl.
 17 18  0  0  1  0            999 V2000
    0.9914   -0.1861    0.0949 Br  0  0  0  0  0  0
    2.8782   -0.1556    0.0769 C   0  0  0  0  0  0
    3.5542    1.0713    0.0672 C   0  0  0  0  0  0
    4.9613    1.1182    0.0538 C   0  0  0  0  0  0
    5.7088   -0.0596    0.0499 C   0  0  0  0  0  0
    5.0112   -1.2531    0.0598 C   0  0  0  0  0  0
    5.5328   -2.6236    0.0586 C   0  0  0  0  0  0
    6.7029   -2.9449    0.0484 O   0  0  0  0  0  0
    4.4393   -3.4599    0.0712 N   0  0  0  0  0  0
    3.1830   -2.7490    0.0811 C   0  0  0  0  0  0
    3.6168   -1.3226    0.0732 C   0  0  0  0  0  0
    2.9965    2.0058    0.0699 H   0  0  0  0  0  0
    5.4685    2.0808    0.0464 H   0  0  0  0  0  0
    6.7939   -0.0480    0.0397 H   0  0  0  0  0  0
    4.5481   -4.4654    0.0729 H   0  0  0  0  0  0
    2.6376   -3.0155    0.9901 H   0  0  0  0  0  0
    2.6205   -3.0205   -0.8159 H   0  0  0  0  0  0
  1  2  1  0  0  0
  2  3  2  0  0  0
  2 11  1  0  0  0
  3  4  1  0  0  0
  3 12  1  0  0  0
  4  5  2  0  0  0
  4 13  1  0  0  0
  5  6  1  0  0  0
  5 14  1  0  0  0
  6  7  1  0  0  0
  6 11  2  0  0  0
  7  9  1  0  0  0
  7  8  2  0  0  0
  9 10  1  0  0  0
  9 15  1  0  0  0
 10 11  1  0  0  0
 10 16  1  0  0  0
 10 17  1  0  0  0
M  END
> <s_m_entry_id>
161

> <s_m_entry_name>
CHEMBL1984500.1

> <s_m_job_name>
mmod_csearch_27

> <s_lp_label>
 _9

> <r_mmod_Potential_Energy-MMFF94s>
-18.479111

> <b_mmod_Minimization_Converged-MMFF94s>
1

> <r_mmod_RMS_Derivative-MMFF94s>
0.001843

> <i_mmod_Times_Found-MMFF94s>
1

> <r_mmod_Relative_Potential_Energy-MMFF94s>
0

> <i_mmod_Conformation-MMFF94s>
1

> <i_mmod_Serial_Number-MMFF94s>
9

$$$$
