CHEMBL1978166.smi
                    3D
 Structure written by MMmdl.
 73 76  0  0  1  0            999 V2000
    7.3537   -7.0953    3.4764 C   0  0  0  0  0  0
    7.2338   -5.6004    3.4525 C   0  0  0  0  0  0
    8.0313   -4.8132    4.2869 C   0  0  0  0  0  0
    7.9366   -3.4237    4.2376 C   0  0  0  0  0  0
    7.0527   -2.8062    3.3480 C   0  0  0  0  0  0
    6.2569   -3.5723    2.4966 C   0  0  0  0  0  0
    5.3461   -3.0330    1.5620 N   0  0  0  0  0  0
    5.0398   -1.6957    1.3451 C   0  0  0  0  0  0
    5.5023   -0.7581    1.9807 O   0  0  0  0  0  0
    4.1291   -1.5737    0.3027 N   0  0  0  0  0  0
    3.5341   -0.3941   -0.1931 C   0  0  0  0  0  0
    3.7528    0.8796    0.3371 C   0  0  0  0  0  0
    3.1166    1.9998   -0.2118 C   0  0  0  0  0  0
    2.2523    1.8536   -1.2979 C   0  0  0  0  0  0
    2.0260    0.5841   -1.8348 C   0  0  0  0  0  0
    2.6639   -0.5311   -1.2836 C   0  0  0  0  0  0
    1.5724    3.0072   -1.8612 C   0  0  0  0  0  0
    2.2283    3.7890   -2.7860 C   0  0  0  0  0  0
    1.2469    5.0361   -3.3853 S   0  0  0  0  0  0
   -0.1063    4.5486   -2.4240 C   0  0  0  0  0  0
   -1.3912    5.1116   -2.3999 C   0  0  0  0  0  0
   -2.2970    4.5510   -1.5257 C   0  0  0  0  0  0
   -2.0214    3.5134   -0.7155 N   0  0  0  0  0  0
   -0.7934    2.9494   -0.7346 C   0  0  0  0  0  0
   -0.6206    1.8989    0.1320 N   0  0  0  0  0  0
    0.2120    3.4487   -1.6090 C   0  0  0  0  0  0
   -1.7498    6.1645   -3.2911 C   0  0  0  0  0  0
   -2.0562    6.9914   -4.1061 C   0  0  0  0  0  0
   -2.4301    7.9271   -5.1738 C   0  0  0  0  0  0
   -1.3224    8.0985   -6.2162 C   0  0  0  0  0  0
   -0.8119    6.8078   -6.8742 C   0  0  0  0  0  0
   -1.9135    5.9482   -7.4971 C   0  0  0  0  0  0
   -1.3734    4.7815   -8.3314 C   0  0  0  0  0  0
   -0.4606    3.7935   -7.5969 C   0  0  0  0  0  0
   -1.1289    3.0982   -6.4073 C   0  0  0  0  0  0
   -0.2158    2.0167   -5.8247 C   0  0  0  0  0  0
   -0.8327    1.3513   -4.6817 N   0  0  0  0  0  0
    6.3603   -4.9707    2.5524 C   0  0  0  0  0  0
    8.1009   -7.4224    2.7469 H   0  0  0  0  0  0
    6.3945   -7.5670    3.2383 H   0  0  0  0  0  0
    7.6510   -7.4486    4.4695 H   0  0  0  0  0  0
    8.7301   -5.2748    4.9807 H   0  0  0  0  0  0
    8.5547   -2.8129    4.8910 H   0  0  0  0  0  0
    7.0178   -1.7217    3.3438 H   0  0  0  0  0  0
    4.8437   -3.7076    1.0089 H   0  0  0  0  0  0
    3.8788   -2.4228   -0.1777 H   0  0  0  0  0  0
    4.4129    1.0411    1.1837 H   0  0  0  0  0  0
    3.3001    2.9803    0.2226 H   0  0  0  0  0  0
    1.3508    0.4549   -2.6799 H   0  0  0  0  0  0
    2.4664   -1.5053   -1.7235 H   0  0  0  0  0  0
    3.2409    3.6757   -3.1509 H   0  0  0  0  0  0
   -3.3140    4.9271   -1.4538 H   0  0  0  0  0  0
   -1.4118    1.6630    0.7115 H   0  0  0  0  0  0
    0.2598    1.4237    0.2387 H   0  0  0  0  0  0
   -2.6583    8.9064   -4.7368 H   0  0  0  0  0  0
   -3.3506    7.5844   -5.6598 H   0  0  0  0  0  0
   -0.4654    8.6028   -5.7508 H   0  0  0  0  0  0
   -1.6884    8.7738   -6.9998 H   0  0  0  0  0  0
   -0.2584    6.2220   -6.1328 H   0  0  0  0  0  0
   -0.0869    7.0865   -7.6491 H   0  0  0  0  0  0
   -2.5330    6.5759   -8.1497 H   0  0  0  0  0  0
   -2.5784    5.5583   -6.7192 H   0  0  0  0  0  0
   -0.8210    5.1876   -9.1881 H   0  0  0  0  0  0
   -2.2260    4.2323   -8.7500 H   0  0  0  0  0  0
    0.4523    4.3009   -7.2644 H   0  0  0  0  0  0
   -0.1407    3.0328   -8.3206 H   0  0  0  0  0  0
   -2.0756    2.6481   -6.7306 H   0  0  0  0  0  0
   -1.3673    3.8338   -5.6310 H   0  0  0  0  0  0
    0.7383    2.4521   -5.5103 H   0  0  0  0  0  0
    0.0090    1.2639   -6.5881 H   0  0  0  0  0  0
   -1.0287    2.0403   -3.9539 H   0  0  0  0  0  0
   -1.7435    0.9820   -4.9537 H   0  0  0  0  0  0
    5.7563   -5.5895    1.8931 H   0  0  0  0  0  0
  1  2  1  0  0  0
  1 39  1  0  0  0
  1 40  1  0  0  0
  1 41  1  0  0  0
  2  3  2  0  0  0
  2 38  1  0  0  0
  3  4  1  0  0  0
  3 42  1  0  0  0
  4  5  2  0  0  0
  4 43  1  0  0  0
  5  6  1  0  0  0
  5 44  1  0  0  0
  6 38  2  0  0  0
  6  7  1  0  0  0
  7  8  1  0  0  0
  7 45  1  0  0  0
  8 10  1  0  0  0
  8  9  2  0  0  0
 10 11  1  0  0  0
 10 46  1  0  0  0
 11 12  2  0  0  0
 11 16  1  0  0  0
 12 13  1  0  0  0
 12 47  1  0  0  0
 13 14  2  0  0  0
 13 48  1  0  0  0
 14 15  1  0  0  0
 14 17  1  0  0  0
 15 16  2  0  0  0
 15 49  1  0  0  0
 16 50  1  0  0  0
 17 18  2  0  0  0
 17 26  1  0  0  0
 18 19  1  0  0  0
 18 51  1  0  0  0
 19 20  1  0  0  0
 20 21  2  0  0  0
 20 26  1  0  0  0
 21 22  1  0  0  0
 21 27  1  0  0  0
 22 23  2  0  0  0
 22 52  1  0  0  0
 23 24  1  0  0  0
 24 26  2  0  0  0
 24 25  1  0  0  0
 25 53  1  0  0  0
 25 54  1  0  0  0
 27 28  3  0  0  0
 28 29  1  0  0  0
 29 30  1  0  0  0
 29 55  1  0  0  0
 29 56  1  0  0  0
 30 31  1  0  0  0
 30 57  1  0  0  0
 30 58  1  0  0  0
 31 32  1  0  0  0
 31 59  1  0  0  0
 31 60  1  0  0  0
 32 33  1  0  0  0
 32 61  1  0  0  0
 32 62  1  0  0  0
 33 34  1  0  0  0
 33 63  1  0  0  0
 33 64  1  0  0  0
 34 35  1  0  0  0
 34 65  1  0  0  0
 34 66  1  0  0  0
 35 36  1  0  0  0
 35 67  1  0  0  0
 35 68  1  0  0  0
 36 37  1  0  0  0
 36 69  1  0  0  0
 36 70  1  0  0  0
 37 71  1  0  0  0
 37 72  1  0  0  0
 38 73  1  0  0  0
M  END
> <s_m_entry_id>
10047

> <s_m_job_name>
mmod_csearch_12

> <r_mmod_Potential_Energy-MMFF94s>
-140.44548

> <b_mmod_Minimization_Converged-MMFF94s>
0

> <r_mmod_RMS_Derivative-MMFF94s>
0.170146

> <i_mmod_Times_Found-MMFF94s>
1

> <r_mmod_Relative_Potential_Energy-MMFF94s>
0

> <i_mmod_Conformation-MMFF94s>
1

> <s_lp_label>
 _16

> <i_mmod_Serial_Number-MMFF94s>
16

$$$$
