CHEMBL289959.smi
                    3D
 Structure written by MMmdl.
 28 30  0  0  1  0            999 V2000
    1.3313    6.4028   -0.7027 N   0  0  0  0  0  0
    0.4123    5.6036   -0.0017 C   0  0  0  0  0  0
    0.7771    4.4252    0.6603 C   0  0  0  0  0  0
   -0.1741    3.6641    1.3456 C   0  0  0  0  0  0
   -1.5055    4.0714    1.3741 C   0  0  0  0  0  0
   -1.8864    5.2369    0.7144 C   0  0  0  0  0  0
   -0.9331    5.9947    0.0295 C   0  0  0  0  0  0
    2.7265    6.5013   -0.6418 C   0  0  0  0  0  0
    3.3089    6.5713   -1.8544 N   0  0  0  0  0  0
    4.6440    6.5941   -1.8750 C   0  0  0  0  0  0
    5.4512    6.5729   -0.8111 N   0  0  0  0  0  0
    4.8622    6.5612    0.3878 C   0  0  0  0  0  0
    5.6750    6.5851    1.5152 C   0  0  0  0  0  0
    5.1488    6.6163    2.8086 C   0  0  0  0  0  0
    3.7744    6.6368    2.9882 C   0  0  0  0  0  0
    2.9401    6.6079    1.8725 C   0  0  0  0  0  0
    3.4694    6.5414    0.5552 C   0  0  0  0  0  0
    1.0314    6.5968   -1.6532 H   0  0  0  0  0  0
    1.8052    4.0731    0.6347 H   0  0  0  0  0  0
    0.1269    2.7502    1.8512 H   0  0  0  0  0  0
   -2.2453    3.4791    1.9061 H   0  0  0  0  0  0
   -2.9243    5.5585    0.7323 H   0  0  0  0  0  0
   -1.2455    6.9068   -0.4735 H   0  0  0  0  0  0
    5.1190    6.6298   -2.8493 H   0  0  0  0  0  0
    6.7550    6.5904    1.3827 H   0  0  0  0  0  0
    5.8156    6.6398    3.6665 H   0  0  0  0  0  0
    3.3494    6.6822    3.9875 H   0  0  0  0  0  0
    1.8655    6.6561    2.0312 H   0  0  0  0  0  0
  1  8  1  0  0  0
  1  2  1  0  0  0
  1 18  1  0  0  0
  2  3  2  0  0  0
  2  7  1  0  0  0
  3  4  1  0  0  0
  3 19  1  0  0  0
  4  5  2  0  0  0
  4 20  1  0  0  0
  5  6  1  0  0  0
  5 21  1  0  0  0
  6  7  2  0  0  0
  6 22  1  0  0  0
  7 23  1  0  0  0
  8  9  2  0  0  0
  8 17  1  0  0  0
  9 10  1  0  0  0
 10 11  2  0  0  0
 10 24  1  0  0  0
 11 12  1  0  0  0
 12 13  2  0  0  0
 12 17  1  0  0  0
 13 14  1  0  0  0
 13 25  1  0  0  0
 14 15  2  0  0  0
 14 26  1  0  0  0
 15 16  1  0  0  0
 15 27  1  0  0  0
 16 17  2  0  0  0
 16 28  1  0  0  0
M  END
> <s_m_entry_id>
114

> <s_m_entry_name>
CHEMBL289959.1

> <s_m_job_name>
mmod_csearch_22

> <s_lp_label>
 _2

> <r_mmod_Potential_Energy-MMFF94s>
29.45813

> <b_mmod_Minimization_Converged-MMFF94s>
1

> <r_mmod_RMS_Derivative-MMFF94s>
0.005986

> <i_mmod_Times_Found-MMFF94s>
499

> <r_mmod_Relative_Potential_Energy-MMFF94s>
0

> <i_mmod_Conformation-MMFF94s>
1

> <i_mmod_Serial_Number-MMFF94s>
2

$$$$
