CHEMBL191003.smi
                    3D
 Structure written by MMmdl.
 39 41  0  0  1  0            999 V2000
    2.2485    2.1840    1.6293 N   0  0  0  0  0  0
    3.1231    1.4052    0.9729 C   0  0  0  0  0  0
    2.9809    0.1346    0.6914 N   0  0  0  0  0  0
    4.1255   -0.1871    0.0158 C   0  0  0  0  0  0
    4.2274   -1.4647   -0.3902 N   0  0  0  0  0  0
    5.2259   -2.1655   -1.0909 C   0  0  0  0  0  0
    5.0196   -3.5286   -1.3713 C   0  0  0  0  0  0
    5.9710   -4.2826   -2.0661 C   0  0  0  0  0  0
    7.1463   -3.6710   -2.4997 C   0  0  0  0  0  0
    7.3825   -2.3248   -2.2243 C   0  0  0  0  0  0
    6.4225   -1.5816   -1.5276 C   0  0  0  0  0  0
    8.3680   -4.6224   -3.3513 S   0  0  0  0  0  0
    9.6427   -3.9480   -3.2704 O   0  0  0  0  0  0
    8.2067   -6.0170   -3.0119 O   0  0  0  0  0  0
    7.8714   -4.4757   -4.9482 N   0  0  0  0  0  0
    4.9779    0.8254   -0.1478 N   0  0  0  0  0  0
    4.3425    1.8446    0.4835 N   0  0  0  0  0  0
    4.9180    3.1199    0.5392 C   0  0  0  0  0  0
    4.2809    4.0372    1.0576 O   0  0  0  0  0  0
    6.2497    3.4031    0.0032 C   0  0  0  0  0  0
    6.3919    4.2322   -1.1013 C   0  0  0  0  0  0
    5.3180    4.7643   -1.7007 F   0  0  0  0  0  0
    7.6571    4.5033   -1.6191 C   0  0  0  0  0  0
    8.7874    3.9396   -1.0220 C   0  0  0  0  0  0
    8.6448    3.1085    0.0915 C   0  0  0  0  0  0
    7.3744    2.8457    0.5992 C   0  0  0  0  0  0
    7.2549    2.0634    1.6808 F   0  0  0  0  0  0
    1.3691    1.8104    1.9664 H   0  0  0  0  0  0
    2.4268    3.1742    1.7996 H   0  0  0  0  0  0
    3.4292   -2.0334   -0.1369 H   0  0  0  0  0  0
    4.1071   -4.0227   -1.0444 H   0  0  0  0  0  0
    5.7865   -5.3365   -2.2606 H   0  0  0  0  0  0
    8.3041   -1.8431   -2.5426 H   0  0  0  0  0  0
    6.6359   -0.5353   -1.3306 H   0  0  0  0  0  0
    7.6241   -5.3933   -5.3195 H   0  0  0  0  0  0
    8.5871   -3.9905   -5.4896 H   0  0  0  0  0  0
    7.7539    5.1497   -2.4871 H   0  0  0  0  0  0
    9.7771    4.1481   -1.4232 H   0  0  0  0  0  0
    9.5154    2.6661    0.5680 H   0  0  0  0  0  0
  1  2  1  0  0  0
  1 28  1  0  0  0
  1 29  1  0  0  0
  2 17  1  0  0  0
  2  3  2  0  0  0
  3  4  1  0  0  0
  4 16  2  0  0  0
  4  5  1  0  0  0
  5  6  1  0  0  0
  5 30  1  0  0  0
  6  7  2  0  0  0
  6 11  1  0  0  0
  7  8  1  0  0  0
  7 31  1  0  0  0
  8  9  2  0  0  0
  8 32  1  0  0  0
  9 10  1  0  0  0
  9 12  1  0  0  0
 10 11  2  0  0  0
 10 33  1  0  0  0
 11 34  1  0  0  0
 12 15  1  0  0  0
 12 14  2  0  0  0
 12 13  2  0  0  0
 15 35  1  0  0  0
 15 36  1  0  0  0
 16 17  1  0  0  0
 17 18  1  0  0  0
 18 20  1  0  0  0
 18 19  2  0  0  0
 20 21  2  0  0  0
 20 26  1  0  0  0
 21 23  1  0  0  0
 21 22  1  0  0  0
 23 24  2  0  0  0
 23 37  1  0  0  0
 24 25  1  0  0  0
 24 38  1  0  0  0
 25 26  2  0  0  0
 25 39  1  0  0  0
 26 27  1  0  0  0
M  END
> <s_m_entry_id>
10165

> <s_m_job_name>
mmod_csearch_13

> <r_mmod_Potential_Energy-MMFF94s>
-293.026917

> <b_mmod_Minimization_Converged-MMFF94s>
1

> <r_mmod_RMS_Derivative-MMFF94s>
0.008211

> <i_mmod_Times_Found-MMFF94s>
335

> <r_mmod_Relative_Potential_Energy-MMFF94s>
0

> <i_mmod_Conformation-MMFF94s>
1

> <s_lp_label>
 _34

> <i_mmod_Serial_Number-MMFF94s>
34

$$$$
