CHEMBL1978713.smi
                    3D
 Structure written by MMmdl.
 43 45  0  0  1  0            999 V2000
    0.6983    0.1768    0.2409 C   0  0  0  0  0  0
    1.0105    0.2367   -1.1451 O   0  0  0  0  0  0
    2.0745   -0.5085   -1.5722 C   0  0  0  0  0  0
    2.8667   -1.3391   -0.7803 C   0  0  0  0  0  0
    3.9294   -2.0502   -1.3497 C   0  0  0  0  0  0
    4.2187   -1.9335   -2.7157 C   0  0  0  0  0  0
    5.3398   -2.7254   -3.3307 C   0  0  0  0  0  0
    4.8706   -4.0110   -3.7794 N   0  0  0  0  0  0
    5.7210   -4.9330   -4.3503 C   0  0  0  0  0  0
    6.9189   -4.6808   -4.4889 O   0  0  0  0  0  0
    5.1162   -6.1947   -4.7670 C   0  0  0  0  0  0
    3.4455   -6.4946   -4.5486 S   0  0  0  0  0  0
    3.5563   -8.0437   -5.2366 C   0  0  0  0  0  0
    2.4460   -8.8021   -5.3311 N   0  0  0  0  0  0
    2.6332  -10.0107   -5.8888 C   0  0  0  0  0  0
    1.4229  -10.8909   -6.0146 C   0  0  0  0  0  0
    3.8632  -10.4712   -6.3423 C   0  0  0  0  0  0
    5.0089   -9.6637   -6.2341 C   0  0  0  0  0  0
    6.3194  -10.2008   -6.7372 C   0  0  0  0  0  0
    4.8443   -8.3767   -5.6474 C   0  0  0  0  0  0
    5.7399   -7.2801   -5.3627 C   0  0  0  0  0  0
    7.0633   -7.2818   -5.6384 N   0  0  0  0  0  0
    3.4127   -1.1078   -3.5078 C   0  0  0  0  0  0
    2.3528   -0.3999   -2.9364 C   0  0  0  0  0  0
    1.5300    0.5466    0.8497 H   0  0  0  0  0  0
    0.4111   -0.8375    0.5370 H   0  0  0  0  0  0
   -0.1607    0.8310    0.4186 H   0  0  0  0  0  0
    2.6844   -1.4601    0.2822 H   0  0  0  0  0  0
    4.5314   -2.7000   -0.7171 H   0  0  0  0  0  0
    6.1509   -2.8767   -2.6085 H   0  0  0  0  0  0
    5.7709   -2.1908   -4.1855 H   0  0  0  0  0  0
    3.8898   -4.2428   -3.6835 H   0  0  0  0  0  0
    0.5338  -10.3916   -5.6159 H   0  0  0  0  0  0
    1.5713  -11.8198   -5.4553 H   0  0  0  0  0  0
    1.2365  -11.1290   -7.0665 H   0  0  0  0  0  0
    3.9330  -11.4629   -6.7825 H   0  0  0  0  0  0
    6.2136  -11.2100   -7.1490 H   0  0  0  0  0  0
    7.0440  -10.2532   -5.9188 H   0  0  0  0  0  0
    6.7086   -9.5590   -7.5336 H   0  0  0  0  0  0
    7.6466   -6.4713   -5.4121 H   0  0  0  0  0  0
    7.5661   -8.0457   -6.0704 H   0  0  0  0  0  0
    3.6024   -1.0104   -4.5746 H   0  0  0  0  0  0
    1.7356    0.2417   -3.5610 H   0  0  0  0  0  0
  1  2  1  0  0  0
  1 25  1  0  0  0
  1 26  1  0  0  0
  1 27  1  0  0  0
  2  3  1  0  0  0
  3  4  2  0  0  0
  3 24  1  0  0  0
  4  5  1  0  0  0
  4 28  1  0  0  0
  5  6  2  0  0  0
  5 29  1  0  0  0
  6 23  1  0  0  0
  6  7  1  0  0  0
  7  8  1  0  0  0
  7 30  1  0  0  0
  7 31  1  0  0  0
  8  9  1  0  0  0
  8 32  1  0  0  0
  9 11  1  0  0  0
  9 10  2  0  0  0
 11 21  2  0  0  0
 11 12  1  0  0  0
 12 13  1  0  0  0
 13 20  1  0  0  0
 13 14  2  0  0  0
 14 15  1  0  0  0
 15 17  2  0  0  0
 15 16  1  0  0  0
 16 33  1  0  0  0
 16 34  1  0  0  0
 16 35  1  0  0  0
 17 18  1  0  0  0
 17 36  1  0  0  0
 18 20  2  0  0  0
 18 19  1  0  0  0
 19 37  1  0  0  0
 19 38  1  0  0  0
 19 39  1  0  0  0
 20 21  1  0  0  0
 21 22  1  0  0  0
 22 40  1  0  0  0
 22 41  1  0  0  0
 23 24  2  0  0  0
 23 42  1  0  0  0
 24 43  1  0  0  0
M  END
> <s_m_entry_id>
153

> <s_m_entry_name>
CHEMBL1978713.1

> <s_m_job_name>
mmod_csearch_27

> <s_lp_label>
 _1

> <r_mmod_Potential_Energy-MMFF94s>
89.752251

> <b_mmod_Minimization_Converged-MMFF94s>
1

> <r_mmod_RMS_Derivative-MMFF94s>
0.008347

> <i_mmod_Times_Found-MMFF94s>
890

> <r_mmod_Relative_Potential_Energy-MMFF94s>
0

> <i_mmod_Conformation-MMFF94s>
1

> <i_mmod_Serial_Number-MMFF94s>
1

$$$$
