CHEMBL1983980.smi
                    3D
 Structure written by MMmdl.
 60 65  0  0  1  0            999 V2000
   -1.2374   19.2274   18.0630 O   0  0  0  0  0  0
    0.1269   18.9527   18.3499 C   0  0  0  0  0  0
    1.0211   19.9772   17.7053 C   0  0  0  0  0  0
    1.3147   21.1770   18.3656 C   0  0  0  0  0  0
    2.1131   22.1462   17.7525 C   0  0  0  0  0  0
    2.6234   21.9351   16.4654 C   0  0  0  0  0  0
    2.3213   20.7403   15.8011 C   0  0  0  0  0  0
    1.5229   19.7710   16.4141 C   0  0  0  0  0  0
    3.4541   22.9480   15.8197 C   0  0  0  0  0  0
    5.0471   23.2050   16.3961 S   0  0  0  0  0  0
    5.3205   24.4239   15.1995 C   0  0  0  0  0  0
    4.2798   24.6197   14.4201 N   0  0  0  0  0  0
    3.2020   23.7940   14.7524 C   0  0  0  0  0  0
    1.9440   23.8673   14.0128 C   0  0  0  0  0  0
    0.9393   23.1973   14.2131 O   0  0  0  0  0  0
    1.9325   24.7820   13.0121 O   0  0  0  0  0  0
    6.4921   25.1133   15.0641 N   0  0  0  0  0  0
    6.5248   26.2682   14.1716 C   0  0  0  0  0  0
    7.8292   26.2679   13.3808 C   0  0  0  0  0  0
    9.0289   26.1470   14.2859 C   0  0  0  0  0  0
   10.2792   26.5975   13.8341 C   0  0  0  0  0  0
   11.4114   26.4694   14.6343 C   0  0  0  0  0  0
   11.3097   25.8707   15.8866 C   0  0  0  0  0  0
   10.0697   25.3917   16.3396 C   0  0  0  0  0  0
   10.0122   24.7360   17.6758 C   0  0  0  0  0  0
    9.1631   25.1140   18.4702 O   0  0  0  0  0  0
   10.9401   23.7355   17.8366 N   0  0  0  0  0  0
   11.1440   22.9652   18.9529 C   0  0  0  0  0  0
   12.0599   22.0271   18.9548 N   0  0  0  0  0  0
   12.0737   21.3946   20.1878 C   0  0  0  0  0  0
   12.9206   20.3328   20.5654 C   0  0  0  0  0  0
   12.8231   19.7890   21.8508 C   0  0  0  0  0  0
   11.8958   20.2895   22.7596 C   0  0  0  0  0  0
   11.0446   21.3424   22.4098 C   0  0  0  0  0  0
   11.1513   21.8801   21.1167 C   0  0  0  0  0  0
   10.2614   23.1612   20.3915 S   0  0  0  0  0  0
    8.9078   25.5314   15.5493 C   0  0  0  0  0  0
    7.5651   25.0214   16.0562 C   0  0  0  0  0  0
   -1.2663   19.9752   17.4409 H   0  0  0  0  0  0
    0.3632   17.9467   17.9875 H   0  0  0  0  0  0
    0.2619   18.9470   19.4366 H   0  0  0  0  0  0
    0.9179   21.3665   19.3612 H   0  0  0  0  0  0
    2.3268   23.0707   18.2849 H   0  0  0  0  0  0
    2.6995   20.5574   14.7976 H   0  0  0  0  0  0
    1.2901   18.8556   15.8737 H   0  0  0  0  0  0
    1.0330   24.6981   12.6401 H   0  0  0  0  0  0
    6.4387   27.1860   14.7681 H   0  0  0  0  0  0
    5.6970   26.2792   13.4527 H   0  0  0  0  0  0
    7.8889   27.1925   12.7946 H   0  0  0  0  0  0
    7.8419   25.4229   12.6811 H   0  0  0  0  0  0
   10.3724   27.0577   12.8518 H   0  0  0  0  0  0
   12.3710   26.8390   14.2809 H   0  0  0  0  0  0
   12.1976   25.7971   16.5106 H   0  0  0  0  0  0
   11.5468   23.4809   17.0693 H   0  0  0  0  0  0
   13.6425   19.9441   19.8543 H   0  0  0  0  0  0
   13.4775   18.9694   22.1389 H   0  0  0  0  0  0
   11.8302   19.8571   23.7562 H   0  0  0  0  0  0
   10.3208   21.7327   23.1189 H   0  0  0  0  0  0
    7.7158   23.9764   16.3502 H   0  0  0  0  0  0
    7.2705   25.6108   16.9323 H   0  0  0  0  0  0
  1  2  1  0  0  0
  1 39  1  0  0  0
  2  3  1  0  0  0
  2 40  1  0  0  0
  2 41  1  0  0  0
  3  4  2  0  0  0
  3  8  1  0  0  0
  4  5  1  0  0  0
  4 42  1  0  0  0
  5  6  2  0  0  0
  5 43  1  0  0  0
  6  7  1  0  0  0
  6  9  1  0  0  0
  7  8  2  0  0  0
  7 44  1  0  0  0
  8 45  1  0  0  0
  9 13  2  0  0  0
  9 10  1  0  0  0
 10 11  1  0  0  0
 11 12  2  0  0  0
 11 17  1  0  0  0
 12 13  1  0  0  0
 13 14  1  0  0  0
 14 16  1  0  0  0
 14 15  2  0  0  0
 16 46  1  0  0  0
 17 18  1  0  0  0
 17 38  1  0  0  0
 18 19  1  0  0  0
 18 47  1  0  0  0
 18 48  1  0  0  0
 19 20  1  0  0  0
 19 49  1  0  0  0
 19 50  1  0  0  0
 20 21  2  0  0  0
 20 37  1  0  0  0
 21 22  1  0  0  0
 21 51  1  0  0  0
 22 23  2  0  0  0
 22 52  1  0  0  0
 23 24  1  0  0  0
 23 53  1  0  0  0
 24 37  2  0  0  0
 24 25  1  0  0  0
 25 27  1  0  0  0
 25 26  2  0  0  0
 27 28  1  0  0  0
 27 54  1  0  0  0
 28 36  1  0  0  0
 28 29  2  0  0  0
 29 30  1  0  0  0
 30 35  1  0  0  0
 30 31  2  0  0  0
 31 32  1  0  0  0
 31 55  1  0  0  0
 32 33  2  0  0  0
 32 56  1  0  0  0
 33 34  1  0  0  0
 33 57  1  0  0  0
 34 35  2  0  0  0
 34 58  1  0  0  0
 35 36  1  0  0  0
 37 38  1  0  0  0
 38 59  1  0  0  0
 38 60  1  0  0  0
M  END
> <s_m_entry_id>
10053

> <s_m_job_name>
mmod_csearch_12

> <r_mmod_Potential_Energy-MMFF94s>
135.533554

> <b_mmod_Minimization_Converged-MMFF94s>
0

> <r_mmod_RMS_Derivative-MMFF94s>
0.083157

> <i_mmod_Times_Found-MMFF94s>
12

> <r_mmod_Relative_Potential_Energy-MMFF94s>
0

> <i_mmod_Conformation-MMFF94s>
1

> <s_lp_label>
 _22

> <i_mmod_Serial_Number-MMFF94s>
22

$$$$
