CHEMBL1989267.smi
                    3D
 Structure written by MMmdl.
 73 77  0  0  1  0            999 V2000
    1.3953    0.7921    2.7873 C   0  0  0  0  0  0
    2.6044    0.4240    2.1327 O   0  0  0  0  0  0
    2.7652   -0.9060    1.8142 C   0  0  0  0  0  0
    1.8288   -1.9092    2.0803 C   0  0  0  0  0  0
    2.1003   -3.2352    1.7207 C   0  0  0  0  0  0
    3.3063   -3.5562    1.0942 C   0  0  0  0  0  0
    4.2444   -2.5568    0.8235 C   0  0  0  0  0  0
    3.9836   -1.2311    1.1766 C   0  0  0  0  0  0
    4.8797   -0.1644    0.9425 N   0  0  0  0  0  0
    6.1117   -0.1865    0.3224 C   0  0  0  0  0  0
    6.6120   -1.1864   -0.1827 O   0  0  0  0  0  0
    6.7844    1.1119    0.2962 C   0  0  0  0  0  0
    6.5414    2.2500    1.0540 C   0  0  0  0  0  0
    7.4677    3.2592    0.6862 C   0  0  0  0  0  0
    7.6821    4.5827    1.1197 C   0  0  0  0  0  0
    8.7113    5.3365    0.5486 C   0  0  0  0  0  0
    9.5221    4.7872   -0.4385 C   0  0  0  0  0  0
    9.3277    3.4748   -0.8816 C   0  0  0  0  0  0
    8.2887    2.7233   -0.3048 C   0  0  0  0  0  0
    7.8588    1.4271   -0.5270 N   0  0  0  0  0  0
    8.4380    0.5212   -1.5005 C   0  0  0  0  0  0
    1.1288   -4.2775    2.0146 C   0  0  0  0  0  0
    0.3302   -4.7555    1.0000 C   0  0  0  0  0  0
   -0.7628   -5.9326    1.5417 S   0  0  0  0  0  0
   -0.2030   -5.8307    3.1786 C   0  0  0  0  0  0
   -0.6685   -6.5562    4.2936 C   0  0  0  0  0  0
   -1.7800   -7.5000    4.1639 C   0  0  0  0  0  0
   -1.7710   -8.7214    4.7216 C   0  0  0  0  0  0
   -2.9359   -9.6212    4.5309 C   0  0  0  0  0  0
   -3.9229   -9.2809    3.8862 O   0  0  0  0  0  0
   -2.8770  -10.8544    5.0992 N   0  0  0  0  0  0
   -1.8082  -11.4831    5.8589 C   0  0  0  0  0  0
   -2.2656  -12.8151    6.4848 C   0  0  0  0  0  0
   -2.9843  -13.7005    5.5442 N   0  0  0  0  0  0
   -2.1012  -14.2066    4.4902 C   0  0  0  0  0  0
   -3.5816  -14.8250    6.2701 C   0  0  0  0  0  0
   -0.0430   -6.2689    5.4950 C   0  0  0  0  0  0
    0.9723   -5.4003    5.6453 N   0  0  0  0  0  0
    1.4385   -4.7203    4.5777 C   0  0  0  0  0  0
    2.4962   -3.8841    4.8392 N   0  0  0  0  0  0
    0.8465   -4.9011    3.2975 C   0  0  0  0  0  0
    0.5262    0.5907    2.1525 H   0  0  0  0  0  0
    1.4306    1.8704    2.9701 H   0  0  0  0  0  0
    1.3042    0.2931    3.7577 H   0  0  0  0  0  0
    0.8848   -1.6905    2.5699 H   0  0  0  0  0  0
    3.5302   -4.5841    0.8157 H   0  0  0  0  0  0
    5.1704   -2.8485    0.3384 H   0  0  0  0  0  0
    4.5277    0.7294    1.2626 H   0  0  0  0  0  0
    5.7866    2.3581    1.8215 H   0  0  0  0  0  0
    7.0547    5.0164    1.8927 H   0  0  0  0  0  0
    8.8789    6.3577    0.8813 H   0  0  0  0  0  0
   10.3209    5.3844   -0.8722 H   0  0  0  0  0  0
    9.9739    3.0633   -1.6496 H   0  0  0  0  0  0
    8.9500   -0.2799   -0.9617 H   0  0  0  0  0  0
    9.1533    1.0475   -2.1343 H   0  0  0  0  0  0
    7.6382    0.1289   -2.1339 H   0  0  0  0  0  0
    0.3320   -4.4619   -0.0418 H   0  0  0  0  0  0
   -2.6308   -7.1736    3.5677 H   0  0  0  0  0  0
   -0.9254   -9.0770    5.2917 H   0  0  0  0  0  0
   -3.6717  -11.4503    4.8823 H   0  0  0  0  0  0
   -1.4902  -10.7983    6.6520 H   0  0  0  0  0  0
   -0.9601  -11.6324    5.1825 H   0  0  0  0  0  0
   -2.9503  -12.5587    7.3044 H   0  0  0  0  0  0
   -1.4047  -13.3247    6.9359 H   0  0  0  0  0  0
   -1.7192  -13.3917    3.8671 H   0  0  0  0  0  0
   -2.6517  -14.8717    3.8150 H   0  0  0  0  0  0
   -1.2484  -14.7613    4.8979 H   0  0  0  0  0  0
   -4.2897  -14.4644    7.0245 H   0  0  0  0  0  0
   -2.8262  -15.4413    6.7710 H   0  0  0  0  0  0
   -4.1530  -15.4644    5.5878 H   0  0  0  0  0  0
   -0.3573   -6.7482    6.4187 H   0  0  0  0  0  0
    2.8338   -3.8838    5.7904 H   0  0  0  0  0  0
    2.9959   -3.3965    4.1155 H   0  0  0  0  0  0
  1  2  1  0  0  0
  1 42  1  0  0  0
  1 43  1  0  0  0
  1 44  1  0  0  0
  2  3  1  0  0  0
  3  4  2  0  0  0
  3  8  1  0  0  0
  4  5  1  0  0  0
  4 45  1  0  0  0
  5  6  2  0  0  0
  5 22  1  0  0  0
  6  7  1  0  0  0
  6 46  1  0  0  0
  7  8  2  0  0  0
  7 47  1  0  0  0
  8  9  1  0  0  0
  9 10  1  0  0  0
  9 48  1  0  0  0
 10 12  1  0  0  0
 10 11  2  0  0  0
 12 20  1  0  0  0
 12 13  2  0  0  0
 13 14  1  0  0  0
 13 49  1  0  0  0
 14 19  1  0  0  0
 14 15  2  0  0  0
 15 16  1  0  0  0
 15 50  1  0  0  0
 16 17  2  0  0  0
 16 51  1  0  0  0
 17 18  1  0  0  0
 17 52  1  0  0  0
 18 19  2  0  0  0
 18 53  1  0  0  0
 19 20  1  0  0  0
 20 21  1  0  0  0
 21 54  1  0  0  0
 21 55  1  0  0  0
 21 56  1  0  0  0
 22 23  2  0  0  0
 22 41  1  0  0  0
 23 24  1  0  0  0
 23 57  1  0  0  0
 24 25  1  0  0  0
 25 26  2  0  0  0
 25 41  1  0  0  0
 26 37  1  0  0  0
 26 27  1  0  0  0
 27 28  2  0  0  0
 27 58  1  0  0  0
 28 29  1  0  0  0
 28 59  1  0  0  0
 29 31  1  0  0  0
 29 30  2  0  0  0
 31 32  1  0  0  0
 31 60  1  0  0  0
 32 33  1  0  0  0
 32 61  1  0  0  0
 32 62  1  0  0  0
 33 34  1  0  0  0
 33 63  1  0  0  0
 33 64  1  0  0  0
 34 36  1  0  0  0
 34 35  1  0  0  0
 35 65  1  0  0  0
 35 66  1  0  0  0
 35 67  1  0  0  0
 36 68  1  0  0  0
 36 69  1  0  0  0
 36 70  1  0  0  0
 37 38  2  0  0  0
 37 71  1  0  0  0
 38 39  1  0  0  0
 39 41  2  0  0  0
 39 40  1  0  0  0
 40 72  1  0  0  0
 40 73  1  0  0  0
M  END
> <s_m_entry_id>
9845

> <s_m_job_name>
mmod_csearch_10

> <r_mmod_Potential_Energy-MMFF94s>
65.101395

> <b_mmod_Minimization_Converged-MMFF94s>
0

> <r_mmod_RMS_Derivative-MMFF94s>
0.090282

> <i_mmod_Times_Found-MMFF94s>
26

> <r_mmod_Relative_Potential_Energy-MMFF94s>
0

> <i_mmod_Conformation-MMFF94s>
1

> <s_lp_label>
 _14

> <i_mmod_Serial_Number-MMFF94s>
14

$$$$
