CHEMBL1984760.smi
                    3D
 Structure written by MMmdl.
 48 50  0  0  1  0            999 V2000
    9.1567    1.8355   -0.4616 C   0  0  0  0  0  0
    7.6525    2.0142   -0.6116 C   0  0  0  0  0  0
    6.8634    0.8118   -0.0978 C   0  0  0  0  0  0
    7.1145   -0.3869   -0.8712 N   0  0  0  0  0  0
    6.4503   -0.6401   -2.0532 C   0  0  0  0  0  0
    5.5799    0.0918   -2.5109 O   0  0  0  0  0  0
    6.8186   -1.8956   -2.7632 C   0  0  0  0  0  0
    8.0967   -2.4536   -2.6798 C   0  0  0  0  0  0
    8.3948   -3.6386   -3.3679 C   0  0  0  0  0  0
    7.4373   -4.2848   -4.1567 C   0  0  0  0  0  0
    7.6737   -5.4707   -4.8574 N   0  0  0  0  0  0
    8.7630   -6.3314   -4.9817 C   0  0  0  0  0  0
    8.5343   -7.3793   -5.8067 N   0  0  0  0  0  0
    9.5040   -8.3121   -6.0261 C   0  0  0  0  0  0
    9.1662   -9.4393   -6.9601 C   0  0  0  0  0  0
    9.0037   -8.9902   -8.4100 C   0  0  0  0  0  0
   10.3100   -8.5708   -9.0434 C   0  0  0  0  0  0
   10.8300   -7.4669   -8.4744 F   0  0  0  0  0  0
   11.2286   -9.5585   -8.9546 F   0  0  0  0  0  0
   10.1288   -8.3043  -10.3569 F   0  0  0  0  0  0
   10.7321   -8.1477   -5.3795 C   0  0  0  0  0  0
   11.9782   -8.8305   -5.3211 C   0  0  0  0  0  0
   12.8031   -8.1208   -4.4728 C   0  0  0  0  0  0
   12.1004   -7.0329   -4.0203 N   0  0  0  0  0  0
   12.4374   -6.3207   -3.3890 H   0  0  0  0  0  0
   10.8445   -7.0377   -4.5620 C   0  0  0  0  0  0
    9.9093   -6.1113   -4.3233 N   0  0  0  0  0  0
    6.1633   -3.6994   -4.2424 C   0  0  0  0  0  0
    5.8553   -2.5169   -3.5605 C   0  0  0  0  0  0
    9.6784    2.7372   -0.7975 H   0  0  0  0  0  0
    9.5202    0.9948   -1.0607 H   0  0  0  0  0  0
    9.4279    1.6567    0.5837 H   0  0  0  0  0  0
    7.4166    2.2016   -1.6656 H   0  0  0  0  0  0
    7.3464    2.9039   -0.0493 H   0  0  0  0  0  0
    5.7910    1.0340   -0.1312 H   0  0  0  0  0  0
    7.1283    0.5917    0.9418 H   0  0  0  0  0  0
    7.7523   -1.0725   -0.4925 H   0  0  0  0  0  0
    8.8868   -1.9721   -2.1119 H   0  0  0  0  0  0
    9.4016   -4.0353   -3.2801 H   0  0  0  0  0  0
    6.9184   -5.8287   -5.4233 H   0  0  0  0  0  0
    8.2216   -9.8814   -6.6194 H   0  0  0  0  0  0
    9.9182  -10.2337   -6.8904 H   0  0  0  0  0  0
    8.2815   -8.1689   -8.4845 H   0  0  0  0  0  0
    8.5928   -9.8269   -8.9874 H   0  0  0  0  0  0
   12.2494   -9.7384   -5.8447 H   0  0  0  0  0  0
   13.8244   -8.2912   -4.1583 H   0  0  0  0  0  0
    5.3876   -4.1612   -4.8494 H   0  0  0  0  0  0
    4.8604   -2.0855   -3.6518 H   0  0  0  0  0  0
  1  2  1  0  0  0
  1 30  1  0  0  0
  1 31  1  0  0  0
  1 32  1  0  0  0
  2  3  1  0  0  0
  2 33  1  0  0  0
  2 34  1  0  0  0
  3  4  1  0  0  0
  3 35  1  0  0  0
  3 36  1  0  0  0
  4  5  1  0  0  0
  4 37  1  0  0  0
  5  7  1  0  0  0
  5  6  2  0  0  0
  7  8  2  0  0  0
  7 29  1  0  0  0
  8  9  1  0  0  0
  8 38  1  0  0  0
  9 10  2  0  0  0
  9 39  1  0  0  0
 10 28  1  0  0  0
 10 11  1  0  0  0
 11 12  1  0  0  0
 11 40  1  0  0  0
 12 13  2  0  0  0
 12 27  1  0  0  0
 13 14  1  0  0  0
 14 21  2  0  0  0
 14 15  1  0  0  0
 15 16  1  0  0  0
 15 41  1  0  0  0
 15 42  1  0  0  0
 16 17  1  0  0  0
 16 43  1  0  0  0
 16 44  1  0  0  0
 17 20  1  0  0  0
 17 19  1  0  0  0
 17 18  1  0  0  0
 21 22  1  0  0  0
 21 26  1  0  0  0
 22 23  2  0  0  0
 22 45  1  0  0  0
 23 24  1  0  0  0
 23 46  1  0  0  0
 24 26  1  0  0  0
 24 25  1  0  0  0
 26 27  2  0  0  0
 28 29  2  0  0  0
 28 47  1  0  0  0
 29 48  1  0  0  0
M  END
> <s_m_entry_id>
162

> <s_m_entry_name>
CHEMBL1984760.1

> <s_m_job_name>
mmod_csearch_27

> <s_lp_label>
 _10

> <r_mmod_Potential_Energy-MMFF94s>
-197.315598

> <b_mmod_Minimization_Converged-MMFF94s>
1

> <r_mmod_RMS_Derivative-MMFF94s>
0.014175

> <i_mmod_Times_Found-MMFF94s>
27

> <r_mmod_Relative_Potential_Energy-MMFF94s>
0

> <i_mmod_Conformation-MMFF94s>
1

> <i_mmod_Serial_Number-MMFF94s>
10

$$$$
