CHEMBL1973868.smi
                    3D
 Structure written by MMmdl.
 27 29  0  0  1  0            999 V2000
    9.9728   -4.1724    1.6528 O   0  0  0  0  0  0
    9.0883   -3.2275    1.2317 C   0  0  0  0  0  0
    7.7495   -3.2364    1.5792 C   0  0  0  0  0  0
    6.8608   -2.3032    1.1675 N   0  0  0  0  0  0
    7.3125   -1.3135    0.3753 C   0  0  0  0  0  0
    6.4327   -0.3377   -0.0661 C   0  0  0  0  0  0
    6.8516    0.7139   -0.8912 C   0  0  0  0  0  0
    8.1855    0.8170   -1.3045 C   0  0  0  0  0  0
    9.0826   -0.1672   -0.8624 C   0  0  0  0  0  0
    8.6605   -1.2233   -0.0316 C   0  0  0  0  0  0
    9.5512   -2.2085    0.4163 C   0  0  0  0  0  0
    8.6307    1.9183   -2.1718 C   0  0  0  0  0  0
    9.3069    1.6679   -3.3717 C   0  0  0  0  0  0
    9.7059    2.7390   -4.1565 C   0  0  0  0  0  0
    9.4848    4.0296   -3.8336 N   0  0  0  0  0  0
    8.8337    4.2580   -2.6749 C   0  0  0  0  0  0
    8.3931    3.2539   -1.8264 C   0  0  0  0  0  0
    9.5088   -4.8155    2.2151 H   0  0  0  0  0  0
    7.3286   -4.0085    2.2148 H   0  0  0  0  0  0
    5.3899   -0.3960    0.2368 H   0  0  0  0  0  0
    6.1152    1.4459   -1.2178 H   0  0  0  0  0  0
   10.1296   -0.1070   -1.1564 H   0  0  0  0  0  0
   10.5998   -2.1854    0.1339 H   0  0  0  0  0  0
    9.5118    0.6549   -3.7030 H   0  0  0  0  0  0
   10.2283    2.5795   -5.0955 H   0  0  0  0  0  0
    8.6697    5.3045   -2.4344 H   0  0  0  0  0  0
    7.8838    3.5160   -0.9045 H   0  0  0  0  0  0
  1  2  1  0  0  0
  1 18  1  0  0  0
  2  3  2  0  0  0
  2 11  1  0  0  0
  3  4  1  0  0  0
  3 19  1  0  0  0
  4  5  2  0  0  0
  5  6  1  0  0  0
  5 10  1  0  0  0
  6  7  2  0  0  0
  6 20  1  0  0  0
  7  8  1  0  0  0
  7 21  1  0  0  0
  8  9  2  0  0  0
  8 12  1  0  0  0
  9 10  1  0  0  0
  9 22  1  0  0  0
 10 11  2  0  0  0
 11 23  1  0  0  0
 12 13  2  0  0  0
 12 17  1  0  0  0
 13 14  1  0  0  0
 13 24  1  0  0  0
 14 15  2  0  0  0
 14 25  1  0  0  0
 15 16  1  0  0  0
 16 17  2  0  0  0
 16 26  1  0  0  0
 17 27  1  0  0  0
M  END
> <s_m_entry_id>
147

> <s_m_entry_name>
CHEMBL1973868.1

> <s_m_job_name>
mmod_csearch_26

> <s_lp_label>
 _3

> <r_mmod_Potential_Energy-MMFF94s>
214.456146

> <b_mmod_Minimization_Converged-MMFF94s>
1

> <r_mmod_RMS_Derivative-MMFF94s>
0.006289

> <i_mmod_Times_Found-MMFF94s>
481

> <r_mmod_Relative_Potential_Energy-MMFF94s>
0

> <i_mmod_Conformation-MMFF94s>
1

> <i_mmod_Serial_Number-MMFF94s>
3

$$$$
