CHEMBL1997041.smi
                    3D
 Structure written by MMmdl.
 27 29  0  0  1  0            999 V2000
    0.9986   -0.3886   -0.3205 C   0  0  0  0  0  0
    2.4829   -0.2255   -0.1994 C   0  0  0  0  0  0
    3.0901    1.0246   -0.4010 C   0  0  0  0  0  0
    4.4873    1.1876   -0.3191 C   0  0  0  0  0  0
    5.2669    0.0449   -0.0615 C   0  0  0  0  0  0
    4.6761   -1.2062    0.1272 C   0  0  0  0  0  0
    3.2948   -1.3306    0.0555 C   0  0  0  0  0  0
    2.7432   -2.5402    0.2287 F   0  0  0  0  0  0
    5.1306    2.4891   -0.5232 C   0  0  0  0  0  0
    6.2436    2.5259   -1.3057 N   0  0  0  0  0  0
    6.8398    3.7152   -1.5119 C   0  0  0  0  0  0
    6.4834    4.9148   -1.0247 N   0  0  0  0  0  0
    5.3983    4.8247   -0.2423 C   0  0  0  0  0  0
    4.8212    5.8843    0.4022 N   0  0  0  0  0  0
    5.1641    6.8322    0.3408 H   0  0  0  0  0  0
    3.7461    5.4510    1.1345 C   0  0  0  0  0  0
    3.6340    4.0887    0.9482 C   0  0  0  0  0  0
    4.6738    3.6805    0.0616 C   0  0  0  0  0  0
    0.4821    0.5603   -0.1412 H   0  0  0  0  0  0
    0.6247   -1.1048    0.4185 H   0  0  0  0  0  0
    0.7410   -0.7427   -1.3234 H   0  0  0  0  0  0
    2.4624    1.8804   -0.6451 H   0  0  0  0  0  0
    6.3515    0.1308   -0.0105 H   0  0  0  0  0  0
    5.2863   -2.0820    0.3226 H   0  0  0  0  0  0
    7.7174    3.7016   -2.1513 H   0  0  0  0  0  0
    3.1624    6.1436    1.7265 H   0  0  0  0  0  0
    2.8870    3.4547    1.4084 H   0  0  0  0  0  0
  1  2  1  0  0  0
  1 19  1  0  0  0
  1 20  1  0  0  0
  1 21  1  0  0  0
  2  3  2  0  0  0
  2  7  1  0  0  0
  3  4  1  0  0  0
  3 22  1  0  0  0
  4  5  2  0  0  0
  4  9  1  0  0  0
  5  6  1  0  0  0
  5 23  1  0  0  0
  6  7  2  0  0  0
  6 24  1  0  0  0
  7  8  1  0  0  0
  9 10  2  0  0  0
  9 18  1  0  0  0
 10 11  1  0  0  0
 11 12  2  0  0  0
 11 25  1  0  0  0
 12 13  1  0  0  0
 13 14  1  0  0  0
 13 18  2  0  0  0
 14 16  1  0  0  0
 14 15  1  0  0  0
 16 17  2  0  0  0
 16 26  1  0  0  0
 17 18  1  0  0  0
 17 27  1  0  0  0
M  END
> <s_m_entry_id>
3889

> <s_m_job_name>
mmod_csearch_9

> <r_mmod_Potential_Energy-MMFF94s>
142.285172

> <b_mmod_Minimization_Converged-MMFF94s>
1

> <r_mmod_RMS_Derivative-MMFF94s>
0.003471

> <i_mmod_Times_Found-MMFF94s>
244

> <r_mmod_Relative_Potential_Energy-MMFF94s>
0

> <i_mmod_Conformation-MMFF94s>
1

> <s_lp_label>
 _49

> <i_mmod_Serial_Number-MMFF94s>
49

$$$$
