CHEMBL1980297.smi
                    3D
 Structure written by MMmdl.
 56 60  0  0  1  0            999 V2000
    0.9017   -2.9694   -0.3071 N   0  0  0  0  0  0
    1.9789   -2.2046   -0.6821 C   0  0  0  0  0  0
    1.6727   -0.9728   -1.1387 N   0  0  0  0  0  0
    2.6520   -0.1504   -1.5550 C   0  0  0  0  0  0
    4.0001   -0.4640   -1.5553 C   0  0  0  0  0  0
    4.9958    0.4682   -2.0301 C   0  0  0  0  0  0
    6.0377    0.3207   -2.9725 C   0  0  0  0  0  0
    6.7377    1.4461   -3.1450 N   0  0  0  0  0  0
    6.1400    2.3209   -2.3096 N   0  0  0  0  0  0
    6.6428    3.6820   -2.2156 C   0  0  0  0  0  0
    8.1283    3.7153   -1.8724 C   0  0  0  0  0  0
    8.9284    3.3226   -2.9863 O   0  0  0  0  0  0
    5.0840    1.7855   -1.6295 C   0  0  0  0  0  0
    4.3319   -1.7431   -1.0671 C   0  0  0  0  0  0
    5.9074   -2.4439   -0.8966 S   0  0  0  0  0  0
    5.2960   -3.8928   -0.2649 C   0  0  0  0  0  0
    3.9239   -3.8766   -0.1575 C   0  0  0  0  0  0
    3.2433   -5.0349    0.3967 C   0  0  0  0  0  0
    2.9041   -5.0660    1.7509 C   0  0  0  0  0  0
    2.2340   -6.1744    2.2782 C   0  0  0  0  0  0
    1.8932   -7.2625    1.4625 C   0  0  0  0  0  0
    1.2177   -8.3378    2.0786 N   0  0  0  0  0  0
    0.7570   -9.5060    1.4842 C   0  0  0  0  0  0
    0.8541   -9.7693    0.2935 O   0  0  0  0  0  0
    0.1693  -10.3318    2.4343 N   0  0  0  0  0  0
   -0.4360  -11.5914    2.2301 C   0  0  0  0  0  0
   -0.5568  -12.2142    0.9839 C   0  0  0  0  0  0
   -1.1734  -13.4666    0.8663 C   0  0  0  0  0  0
   -1.6754  -14.1068    1.9951 C   0  0  0  0  0  0
   -1.5562  -13.4881    3.2313 C   0  0  0  0  0  0
   -2.0373  -14.0975    4.3231 F   0  0  0  0  0  0
   -0.9451  -12.2435    3.3591 C   0  0  0  0  0  0
    2.2376   -7.2221    0.1097 C   0  0  0  0  0  0
    2.9091   -6.1148   -0.4226 C   0  0  0  0  0  0
    3.3345   -2.6310   -0.6205 C   0  0  0  0  0  0
   -0.0066   -2.5506   -0.4412 H   0  0  0  0  0  0
    0.9901   -3.9304   -0.0237 H   0  0  0  0  0  0
    2.3008    0.8123   -1.9183 H   0  0  0  0  0  0
    6.3111   -0.5573   -3.5447 H   0  0  0  0  0  0
    6.0634    4.1945   -1.4407 H   0  0  0  0  0  0
    6.4447    4.1528   -3.1846 H   0  0  0  0  0  0
    8.3657    3.0599   -1.0277 H   0  0  0  0  0  0
    8.4248    4.7348   -1.6077 H   0  0  0  0  0  0
    8.5485    2.4737   -3.3069 H   0  0  0  0  0  0
    4.5057    2.3695   -0.9264 H   0  0  0  0  0  0
    5.9739   -4.6910    0.0088 H   0  0  0  0  0  0
    3.1534   -4.2298    2.4007 H   0  0  0  0  0  0
    1.9829   -6.1691    3.3358 H   0  0  0  0  0  0
    1.0402   -8.2327    3.0644 H   0  0  0  0  0  0
    0.1845  -10.0058    3.3874 H   0  0  0  0  0  0
   -0.1815  -11.7527    0.0754 H   0  0  0  0  0  0
   -1.2577  -13.9357   -0.1111 H   0  0  0  0  0  0
   -2.1553  -15.0769    1.9188 H   0  0  0  0  0  0
   -0.8787  -11.8057    4.3494 H   0  0  0  0  0  0
    2.0007   -8.0380   -0.5663 H   0  0  0  0  0  0
    3.1617   -6.1064   -1.4810 H   0  0  0  0  0  0
  1  2  1  0  0  0
  1 36  1  0  0  0
  1 37  1  0  0  0
  2  3  2  0  0  0
  2 35  1  0  0  0
  3  4  1  0  0  0
  4  5  2  0  0  0
  4 38  1  0  0  0
  5 14  1  0  0  0
  5  6  1  0  0  0
  6  7  1  0  0  0
  6 13  2  0  0  0
  7  8  2  0  0  0
  7 39  1  0  0  0
  8  9  1  0  0  0
  9 13  1  0  0  0
  9 10  1  0  0  0
 10 11  1  0  0  0
 10 40  1  0  0  0
 10 41  1  0  0  0
 11 12  1  0  0  0
 11 42  1  0  0  0
 11 43  1  0  0  0
 12 44  1  0  0  0
 13 45  1  0  0  0
 14 15  1  0  0  0
 14 35  2  0  0  0
 15 16  1  0  0  0
 16 17  2  0  0  0
 16 46  1  0  0  0
 17 35  1  0  0  0
 17 18  1  0  0  0
 18 19  2  0  0  0
 18 34  1  0  0  0
 19 20  1  0  0  0
 19 47  1  0  0  0
 20 21  2  0  0  0
 20 48  1  0  0  0
 21 33  1  0  0  0
 21 22  1  0  0  0
 22 23  1  0  0  0
 22 49  1  0  0  0
 23 25  1  0  0  0
 23 24  2  0  0  0
 25 26  1  0  0  0
 25 50  1  0  0  0
 26 27  2  0  0  0
 26 32  1  0  0  0
 27 28  1  0  0  0
 27 51  1  0  0  0
 28 29  2  0  0  0
 28 52  1  0  0  0
 29 30  1  0  0  0
 29 53  1  0  0  0
 30 32  2  0  0  0
 30 31  1  0  0  0
 32 54  1  0  0  0
 33 34  2  0  0  0
 33 55  1  0  0  0
 34 56  1  0  0  0
M  END
> <s_m_entry_id>
155

> <s_m_entry_name>
CHEMBL1980297.1

> <s_m_job_name>
mmod_csearch_27

> <s_lp_label>
 _3

> <r_mmod_Potential_Energy-MMFF94s>
-68.885101

> <b_mmod_Minimization_Converged-MMFF94s>
1

> <r_mmod_RMS_Derivative-MMFF94s>
0.014443

> <i_mmod_Times_Found-MMFF94s>
34

> <r_mmod_Relative_Potential_Energy-MMFF94s>
0

> <i_mmod_Conformation-MMFF94s>
1

> <i_mmod_Serial_Number-MMFF94s>
3

$$$$
