CHEMBL1988581.smi
                    3D
 Structure written by MMmdl.
 32 33  0  0  1  0            999 V2000
    3.4178   -0.5060   -0.9221 C   0  0  0  0  0  0
    3.4108    0.9491   -0.7393 N   0  0  0  0  0  0
    2.0553    1.3961   -0.4102 C   0  0  0  0  0  0
    4.3464    1.3509    0.3318 C   0  0  0  0  0  0
    5.8036    1.1857   -0.0416 C   0  0  0  0  0  0
    6.6735    0.4547    0.6759 C   0  0  0  0  0  0
    6.3144   -0.2302    1.8218 O   0  0  0  0  0  0
    8.1093    0.3552    0.2420 C   0  0  0  0  0  0
    8.9101   -0.3721    0.9689 N   0  0  0  0  0  0
   10.2180   -0.4574    0.5670 C   0  0  0  0  0  0
   10.6997    0.1620   -0.5161 C   0  0  0  0  0  0
    9.7939    0.9856   -1.3359 C   0  0  0  0  0  0
   10.2483    1.5528   -2.3284 O   0  0  0  0  0  0
    8.4815    1.0456   -0.8989 N   0  0  0  0  0  0
    7.5547    1.7951   -1.6088 C   0  0  0  0  0  0
    6.2756    1.8827   -1.2252 C   0  0  0  0  0  0
   11.1033   -1.3076    1.4335 C   0  0  0  0  0  0
    4.4029   -0.8618   -1.2420 H   0  0  0  0  0  0
    2.7179   -0.7941   -1.7149 H   0  0  0  0  0  0
    3.1369   -1.0403   -0.0071 H   0  0  0  0  0  0
    1.3570    1.1295   -1.2114 H   0  0  0  0  0  0
    2.0212    2.4875   -0.3189 H   0  0  0  0  0  0
    1.6898    0.9592    0.5263 H   0  0  0  0  0  0
    4.1056    0.8207    1.2625 H   0  0  0  0  0  0
    4.2011    2.4184    0.5505 H   0  0  0  0  0  0
    7.1459   -0.6650    2.1110 H   0  0  0  0  0  0
   11.7306    0.0977   -0.8368 H   0  0  0  0  0  0
    7.9116    2.3093   -2.4980 H   0  0  0  0  0  0
    5.5631    2.4667   -1.8018 H   0  0  0  0  0  0
   12.1345   -1.3396    1.0662 H   0  0  0  0  0  0
   10.7273   -2.3356    1.4658 H   0  0  0  0  0  0
   11.1239   -0.9143    2.4553 H   0  0  0  0  0  0
  1  2  1  0  0  0
  1 18  1  0  0  0
  1 19  1  0  0  0
  1 20  1  0  0  0
  2  4  1  0  0  0
  2  3  1  0  0  0
  3 21  1  0  0  0
  3 22  1  0  0  0
  3 23  1  0  0  0
  4  5  1  0  0  0
  4 24  1  0  0  0
  4 25  1  0  0  0
  5 16  1  0  0  0
  5  6  2  0  0  0
  6  8  1  0  0  0
  6  7  1  0  0  0
  7 26  1  0  0  0
  8 14  1  0  0  0
  8  9  2  0  0  0
  9 10  1  0  0  0
 10 11  2  0  0  0
 10 17  1  0  0  0
 11 12  1  0  0  0
 11 27  1  0  0  0
 12 14  1  0  0  0
 12 13  2  0  0  0
 14 15  1  0  0  0
 15 16  2  0  0  0
 15 28  1  0  0  0
 16 29  1  0  0  0
 17 30  1  0  0  0
 17 31  1  0  0  0
 17 32  1  0  0  0
M  END
> <s_m_entry_id>
10223

> <s_m_job_name>
mmod_csearch_13

> <r_mmod_Potential_Energy-MMFF94s>
52.211906

> <b_mmod_Minimization_Converged-MMFF94s>
1

> <r_mmod_RMS_Derivative-MMFF94s>
0.006259

> <i_mmod_Times_Found-MMFF94s>
438

> <r_mmod_Relative_Potential_Energy-MMFF94s>
0

> <i_mmod_Conformation-MMFF94s>
1

> <s_lp_label>
 _92

> <i_mmod_Serial_Number-MMFF94s>
92

$$$$
