CHEMBL1995211.smi
                    3D
 Structure written by MMmdl.
 38 40  0  0  1  0            999 V2000
    1.2526    0.4101    1.5992 C   0  0  0  0  0  0
    2.7786    0.3580    1.8246 C   0  0  0  0  0  0
    3.0313    0.3088    3.3378 C   0  0  0  0  0  0
    3.3211   -0.8972    1.1286 C   0  0  0  0  0  0
    3.3363    1.5708    1.2315 N   0  0  0  0  0  0
    4.6604    1.9497    1.2276 C   0  0  0  0  0  0
    5.6054    1.1636    1.7983 N   0  0  0  0  0  0
    6.8964    1.5421    1.7512 C   0  0  0  0  0  0
    7.4170    2.6440    1.1905 N   0  0  0  0  0  0
    6.4580    3.4041    0.6451 C   0  0  0  0  0  0
    6.6919    4.5874    0.0020 N   0  0  0  0  0  0
    7.6109    4.9887   -0.1142 H   0  0  0  0  0  0
    5.5079    5.1230   -0.4315 C   0  0  0  0  0  0
    4.4923    4.2625   -0.0546 C   0  0  0  0  0  0
    3.0974    4.5514   -0.3225 C   0  0  0  0  0  0
    2.2122    4.7725    0.7394 C   0  0  0  0  0  0
    0.8641    5.0311    0.4868 C   0  0  0  0  0  0
    0.3963    5.0729   -0.8262 C   0  0  0  0  0  0
    1.2748    4.8574   -1.8880 C   0  0  0  0  0  0
    2.6237    4.5978   -1.6380 C   0  0  0  0  0  0
    5.0932    3.1515    0.6240 C   0  0  0  0  0  0
    1.0112    0.4524    0.5303 H   0  0  0  0  0  0
    0.8138    1.2998    2.0666 H   0  0  0  0  0  0
    0.7553   -0.4708    2.0204 H   0  0  0  0  0  0
    2.4910   -0.5258    3.7993 H   0  0  0  0  0  0
    2.6992    1.2332    3.8243 H   0  0  0  0  0  0
    4.0899    0.1739    3.5789 H   0  0  0  0  0  0
    2.8073   -1.7975    1.4849 H   0  0  0  0  0  0
    4.3896   -1.0444    1.3131 H   0  0  0  0  0  0
    3.1816   -0.8388    0.0429 H   0  0  0  0  0  0
    2.7088    2.1624    0.7017 H   0  0  0  0  0  0
    7.6031    0.8680    2.2249 H   0  0  0  0  0  0
    5.4879    6.0715   -0.9526 H   0  0  0  0  0  0
    2.5681    4.7430    1.7674 H   0  0  0  0  0  0
    0.1803    5.2021    1.3143 H   0  0  0  0  0  0
   -0.6535    5.2757   -1.0226 H   0  0  0  0  0  0
    0.9095    4.8903   -2.9112 H   0  0  0  0  0  0
    3.2986    4.4237   -2.4727 H   0  0  0  0  0  0
  1  2  1  0  0  0
  1 22  1  0  0  0
  1 23  1  0  0  0
  1 24  1  0  0  0
  2  5  1  0  0  0
  2  4  1  0  0  0
  2  3  1  0  0  0
  3 25  1  0  0  0
  3 26  1  0  0  0
  3 27  1  0  0  0
  4 28  1  0  0  0
  4 29  1  0  0  0
  4 30  1  0  0  0
  5  6  1  0  0  0
  5 31  1  0  0  0
  6  7  2  0  0  0
  6 21  1  0  0  0
  7  8  1  0  0  0
  8  9  2  0  0  0
  8 32  1  0  0  0
  9 10  1  0  0  0
 10 21  2  0  0  0
 10 11  1  0  0  0
 11 13  1  0  0  0
 11 12  1  0  0  0
 13 14  2  0  0  0
 13 33  1  0  0  0
 14 21  1  0  0  0
 14 15  1  0  0  0
 15 16  2  0  0  0
 15 20  1  0  0  0
 16 17  1  0  0  0
 16 34  1  0  0  0
 17 18  2  0  0  0
 17 35  1  0  0  0
 18 19  1  0  0  0
 18 36  1  0  0  0
 19 20  2  0  0  0
 19 37  1  0  0  0
 20 38  1  0  0  0
M  END
> <s_m_entry_id>
10058

> <s_m_job_name>
mmod_csearch_12

> <r_mmod_Potential_Energy-MMFF94s>
27.023724

> <b_mmod_Minimization_Converged-MMFF94s>
1

> <r_mmod_RMS_Derivative-MMFF94s>
0.005165

> <i_mmod_Times_Found-MMFF94s>
617

> <r_mmod_Relative_Potential_Energy-MMFF94s>
0

> <i_mmod_Conformation-MMFF94s>
1

> <s_lp_label>
 _27

> <i_mmod_Serial_Number-MMFF94s>
27

$$$$
