CHEMBL242865.smi
                    3D
 Structure written by MMmdl.
 39 41  0  0  1  0            999 V2000
   -1.4441  -12.5517    6.5059 O   0  0  0  0  0  0
   -0.8790  -13.1710    5.4532 C   0  0  0  0  0  0
   -0.3159  -14.2435    5.5857 O   0  0  0  0  0  0
   -1.0288  -12.4150    4.1804 C   0  0  0  0  0  0
   -1.3857  -11.0550    4.2230 C   0  0  0  0  0  0
   -1.4956  -10.3172    3.0470 C   0  0  0  0  0  0
   -1.2393  -10.9290    1.8260 C   0  0  0  0  0  0
   -0.8881  -12.2821    1.7770 C   0  0  0  0  0  0
   -0.7828  -13.0581    2.9422 C   0  0  0  0  0  0
   -0.4943  -14.4345    2.8938 N   0  0  0  0  0  0
   -0.5970  -15.4473    1.9429 C   0  0  0  0  0  0
   -1.3602  -15.3531    0.8036 C   0  0  0  0  0  0
   -1.3569  -16.4479   -0.0239 C   0  0  0  0  0  0
   -0.6640  -17.5685    0.2315 N   0  0  0  0  0  0
    0.0387  -17.5970    1.3727 C   0  0  0  0  0  0
    0.7300  -18.7837    1.6030 N   0  0  0  0  0  0
    1.5433  -19.2503    2.6396 C   0  0  0  0  0  0
    2.1260  -20.5240    2.5108 C   0  0  0  0  0  0
    2.9557  -21.0550    3.5053 C   0  0  0  0  0  0
    3.2148  -20.3043    4.6550 C   0  0  0  0  0  0
    2.6502  -19.0357    4.8082 C   0  0  0  0  0  0
    1.8225  -18.5204    3.8020 C   0  0  0  0  0  0
    4.0827  -20.8508    5.7045 N   0  3  0  0  0  0
    4.2850  -20.1538    6.7092 O   0  5  0  0  0  0
    4.5635  -21.9793    5.5249 O   0  0  0  0  0  0
    0.0834  -16.5706    2.2323 N   0  0  0  0  0  0
   -1.2797  -13.1608    7.2564 H   0  0  0  0  0  0
   -1.5719  -10.5597    5.1734 H   0  0  0  0  0  0
   -1.7671   -9.2651    3.0859 H   0  0  0  0  0  0
   -1.3025  -10.3528    0.9057 H   0  0  0  0  0  0
   -0.6519  -12.7063    0.8055 H   0  0  0  0  0  0
   -0.0428  -14.7995    3.7366 H   0  0  0  0  0  0
   -1.9708  -14.4944    0.5714 H   0  0  0  0  0  0
   -1.9379  -16.4588   -0.9413 H   0  0  0  0  0  0
    0.5639  -19.4061    0.8256 H   0  0  0  0  0  0
    1.9367  -21.1220    1.6213 H   0  0  0  0  0  0
    3.3853  -22.0444    3.3647 H   0  0  0  0  0  0
    2.8369  -18.4326    5.6944 H   0  0  0  0  0  0
    1.3985  -17.5317    3.9556 H   0  0  0  0  0  0
  1  2  1  0  0  0
  1 27  1  0  0  0
  2  4  1  0  0  0
  2  3  2  0  0  0
  4  5  2  0  0  0
  4  9  1  0  0  0
  5  6  1  0  0  0
  5 28  1  0  0  0
  6  7  2  0  0  0
  6 29  1  0  0  0
  7  8  1  0  0  0
  7 30  1  0  0  0
  8  9  2  0  0  0
  8 31  1  0  0  0
  9 10  1  0  0  0
 10 11  1  0  0  0
 10 32  1  0  0  0
 11 12  2  0  0  0
 11 26  1  0  0  0
 12 13  1  0  0  0
 12 33  1  0  0  0
 13 14  2  0  0  0
 13 34  1  0  0  0
 14 15  1  0  0  0
 15 16  1  0  0  0
 15 26  2  0  0  0
 16 17  1  0  0  0
 16 35  1  0  0  0
 17 18  2  0  0  0
 17 22  1  0  0  0
 18 19  1  0  0  0
 18 36  1  0  0  0
 19 20  2  0  0  0
 19 37  1  0  0  0
 20 23  1  0  0  0
 20 21  1  0  0  0
 21 22  2  0  0  0
 21 38  1  0  0  0
 22 39  1  0  0  0
 23 25  2  0  0  0
 23 24  1  0  0  0
M  CHG  2  23   1  24  -1
M  END
> <s_m_entry_id>
12588

> <s_m_job_name>
mmod_csearch_16

> <r_mmod_Potential_Energy-MMFF94s>
-105.692772

> <b_mmod_Minimization_Converged-MMFF94s>
1

> <r_mmod_RMS_Derivative-MMFF94s>
0.004185

> <i_mmod_Times_Found-MMFF94s>
343

> <r_mmod_Relative_Potential_Energy-MMFF94s>
0

> <i_mmod_Conformation-MMFF94s>
1

> <s_lp_label>
 _54

> <i_mmod_Serial_Number-MMFF94s>
54

$$$$
