CHEMBL1980407.smi
                    3D
 Structure written by MMmdl.
 57 61  0  0  1  0            999 V2000
    0.3566   -1.2314   -1.4808 N   0  0  0  0  0  0
    1.7988   -1.5396   -1.3823 C   0  0  1  0  0  0
    2.5976   -0.6319   -2.3483 C   0  0  0  0  0  0
    2.2393   -0.8857   -3.7150 O   0  0  0  0  0  0
    2.8717   -1.8969   -4.3773 C   0  0  0  0  0  0
    2.5336   -2.0483   -5.7172 C   0  0  0  0  0  0
    3.0399   -3.0004   -6.5351 N   0  0  0  0  0  0
    3.9304   -3.8538   -5.9800 C   0  0  0  0  0  0
    4.3507   -3.8068   -4.6505 C   0  0  0  0  0  0
    3.8003   -2.7922   -3.8497 C   0  0  0  0  0  0
    5.3094   -4.7797   -4.1063 C   0  0  0  0  0  0
    6.5762   -4.9615   -4.7121 C   0  0  0  0  0  0
    7.5072   -5.8700   -4.2009 C   0  0  0  0  0  0
    7.1389   -6.5973   -3.0885 C   0  0  0  0  0  0
    7.9285   -7.5192   -2.4087 N   0  0  0  0  0  0
    7.2597   -8.0468   -1.3189 C   0  0  0  0  0  0
    7.6845   -8.8532   -0.5139 O   0  0  0  0  0  0
    5.8941   -7.4032   -1.3459 C   0  0  0  0  0  0
    4.9993   -7.7760   -0.4181 C   0  0  0  0  0  0
    3.6600   -7.3299   -0.3584 C   0  0  0  0  0  0
    2.6087   -7.2886   -1.2532 C   0  0  0  0  0  0
    1.4846   -6.7556   -0.5769 C   0  0  0  0  0  0
    1.8684   -6.5109    0.7214 C   0  0  0  0  0  0
    3.1821   -6.8841    0.8520 N   0  0  0  0  0  0
    3.7201   -6.8214    1.7072 H   0  0  0  0  0  0
    5.8879   -6.4664   -2.4764 C   0  0  0  0  0  0
    4.9795   -5.5443   -2.9670 C   0  0  0  0  0  0
    2.2576   -1.3709    0.0797 C   0  0  0  0  0  0
    3.6826   -1.8169    0.3181 C   0  0  0  0  0  0
    4.0350   -3.1690    0.2096 C   0  0  0  0  0  0
    5.3559   -3.5745    0.4042 C   0  0  0  0  0  0
    6.3362   -2.6352    0.7149 C   0  0  0  0  0  0
    5.9956   -1.2897    0.8358 C   0  0  0  0  0  0
    4.6752   -0.8816    0.6403 C   0  0  0  0  0  0
   -0.1791   -1.9649   -1.0177 H   0  0  0  0  0  0
    0.0903   -1.2651   -2.4677 H   0  0  0  0  0  0
    1.9133   -2.5850   -1.6901 H   0  0  0  0  0  0
    3.6822   -0.6970   -2.2118 H   0  0  0  0  0  0
    2.3430    0.4175   -2.1520 H   0  0  0  0  0  0
    1.8160   -1.3785   -6.1837 H   0  0  0  0  0  0
    4.3024   -4.6164   -6.6603 H   0  0  0  0  0  0
    4.1207   -2.7272   -2.8152 H   0  0  0  0  0  0
    6.8512   -4.3681   -5.5835 H   0  0  0  0  0  0
    8.4816   -5.9848   -4.6619 H   0  0  0  0  0  0
    8.8740   -7.7776   -2.6455 H   0  0  0  0  0  0
    5.3106   -8.4936    0.3418 H   0  0  0  0  0  0
    2.6431   -7.6158   -2.2850 H   0  0  0  0  0  0
    0.4982   -6.5866   -0.9896 H   0  0  0  0  0  0
    1.3199   -6.1184    1.5674 H   0  0  0  0  0  0
    4.0199   -5.4020   -2.4826 H   0  0  0  0  0  0
    1.6108   -1.9580    0.7460 H   0  0  0  0  0  0
    2.1359   -0.3247    0.3906 H   0  0  0  0  0  0
    3.2822   -3.9157   -0.0329 H   0  0  0  0  0  0
    5.6219   -4.6237    0.3124 H   0  0  0  0  0  0
    7.3648   -2.9519    0.8661 H   0  0  0  0  0  0
    6.7592   -0.5566    1.0831 H   0  0  0  0  0  0
    4.4288    0.1737    0.7382 H   0  0  0  0  0  0
  1  2  1  0  0  0
  1 35  1  0  0  0
  1 36  1  0  0  0
  2 28  1  0  0  0
  2  3  1  0  0  0
  2 37  1  0  0  0
  3  4  1  0  0  0
  3 38  1  0  0  0
  3 39  1  0  0  0
  4  5  1  0  0  0
  5 10  1  0  0  0
  5  6  2  0  0  0
  6  7  1  0  0  0
  6 40  1  0  0  0
  7  8  2  0  0  0
  8  9  1  0  0  0
  8 41  1  0  0  0
  9 10  2  0  0  0
  9 11  1  0  0  0
 10 42  1  0  0  0
 11 12  2  0  0  0
 11 27  1  0  0  0
 12 13  1  0  0  0
 12 43  1  0  0  0
 13 14  2  0  0  0
 13 44  1  0  0  0
 14 26  1  0  0  0
 14 15  1  0  0  0
 15 16  1  0  0  0
 15 45  1  0  0  0
 16 18  1  0  0  0
 16 17  2  0  0  0
 18 26  1  0  0  0
 18 19  2  0  0  0
 19 20  1  0  0  0
 19 46  1  0  0  0
 20 21  2  0  0  0
 20 24  1  0  0  0
 21 22  1  0  0  0
 21 47  1  0  0  0
 22 23  2  0  0  0
 22 48  1  0  0  0
 23 24  1  0  0  0
 23 49  1  0  0  0
 24 25  1  0  0  0
 26 27  2  0  0  0
 27 50  1  0  0  0
 28 29  1  0  0  0
 28 51  1  0  0  0
 28 52  1  0  0  0
 29 30  2  0  0  0
 29 34  1  0  0  0
 30 31  1  0  0  0
 30 53  1  0  0  0
 31 32  2  0  0  0
 31 54  1  0  0  0
 32 33  1  0  0  0
 32 55  1  0  0  0
 33 34  2  0  0  0
 33 56  1  0  0  0
 34 57  1  0  0  0
M  END
> <s_m_entry_id>
13307

> <s_m_job_name>
mmod_csearch_16

> <r_mmod_Potential_Energy-MMFF94s>
475.438812

> <b_mmod_Minimization_Converged-MMFF94s>
0

> <r_mmod_RMS_Derivative-MMFF94s>
0.09957

> <i_mmod_Times_Found-MMFF94s>
25

> <r_mmod_Relative_Potential_Energy-MMFF94s>
0

> <i_mmod_Conformation-MMFF94s>
1

> <s_lp_label>
 _88

> <i_mmod_Serial_Number-MMFF94s>
88

$$$$
