CHEMBL1996649.smi
                    3D
 Structure written by MMmdl.
 69 72  0  0  1  0            999 V2000
   19.2560    6.6128   38.1506 C   0  0  0  0  0  0
   18.5461    7.7344   37.3968 C   0  0  0  0  0  0
   18.6263    7.5969   35.9231 N   0  0  0  0  0  0
   19.9993    7.8863   35.4539 C   0  0  0  0  0  0
   20.2428    7.4551   34.0093 C   0  0  0  0  0  0
   17.6536    8.5171   35.2824 C   0  0  0  0  0  0
   16.1820    8.0691   35.3682 C   0  0  0  0  0  0
   15.9106    6.7322   34.6796 C   0  0  0  0  0  0
   16.5104    5.6322   35.4016 N   0  0  0  0  0  0
   15.7921    4.6056   35.9604 C   0  0  0  0  0  0
   14.5695    4.5236   35.9111 O   0  0  0  0  0  0
   16.5526    3.5947   36.7181 C   0  0  0  0  0  0
   15.9527    3.0309   37.8290 C   0  0  0  0  0  0
   16.5369    2.1265   38.6382 N   0  0  0  0  0  0
   17.7887    1.7001   38.3754 C   0  0  0  0  0  0
   18.2974    0.8008   39.2792 N   0  0  0  0  0  0
   18.4846    2.1806   37.2312 C   0  0  0  0  0  0
   19.8074    1.8651   36.7179 C   0  0  0  0  0  0
   20.1103    2.5471   35.5618 C   0  0  0  0  0  0
   18.8423    3.5518   35.0611 S   0  0  0  0  0  0
   17.8440    3.1299   36.4101 C   0  0  0  0  0  0
   20.7789    0.9332   37.2650 C   0  0  0  0  0  0
   21.7828    1.3862   38.1230 C   0  0  0  0  0  0
   22.7078    0.4848   38.6633 C   0  0  0  0  0  0
   22.6403   -0.8753   38.3534 C   0  0  0  0  0  0
   23.5308   -1.8491   38.8539 N   0  0  0  0  0  0
   24.5947   -1.6606   39.7274 C   0  0  0  0  0  0
   24.9150   -0.5858   40.2162 O   0  0  0  0  0  0
   25.2420   -2.8661   39.9675 N   0  0  0  0  0  0
   26.3560   -3.0984   40.8041 C   0  0  0  0  0  0
   26.9951   -2.1086   41.5574 C   0  0  0  0  0  0
   28.0960   -2.4225   42.3648 C   0  0  0  0  0  0
   28.5671   -3.7303   42.4260 C   0  0  0  0  0  0
   27.9324   -4.7122   41.6789 C   0  0  0  0  0  0
   28.3795   -5.9740   41.7323 F   0  0  0  0  0  0
   26.8375   -4.4108   40.8732 C   0  0  0  0  0  0
   21.6293   -1.3212   37.4905 C   0  0  0  0  0  0
   20.7028   -0.4247   36.9487 C   0  0  0  0  0  0
   19.0370    6.6908   39.2210 H   0  0  0  0  0  0
   20.3426    6.6575   38.0397 H   0  0  0  0  0  0
   18.9124    5.6311   37.8138 H   0  0  0  0  0  0
   18.9385    8.7064   37.7219 H   0  0  0  0  0  0
   17.5007    7.6946   37.7198 H   0  0  0  0  0  0
   20.7268    7.3299   36.0533 H   0  0  0  0  0  0
   20.2405    8.9502   35.5723 H   0  0  0  0  0  0
   19.9494    6.4126   33.8526 H   0  0  0  0  0  0
   21.3091    7.5395   33.7732 H   0  0  0  0  0  0
   19.7036    8.0782   33.2908 H   0  0  0  0  0  0
   17.8723    8.6190   34.2142 H   0  0  0  0  0  0
   17.7495    9.5255   35.7066 H   0  0  0  0  0  0
   15.5745    8.8362   34.8712 H   0  0  0  0  0  0
   15.8394    8.0346   36.4079 H   0  0  0  0  0  0
   16.3315    6.7259   33.6686 H   0  0  0  0  0  0
   14.8304    6.5767   34.5936 H   0  0  0  0  0  0
   17.5173    5.6939   35.5411 H   0  0  0  0  0  0
   14.9440    3.3153   38.1222 H   0  0  0  0  0  0
   17.6952    0.5644   40.0540 H   0  0  0  0  0  0
   19.2376    0.4477   39.2294 H   0  0  0  0  0  0
   21.0198    2.4917   34.9774 H   0  0  0  0  0  0
   21.8544    2.4399   38.3846 H   0  0  0  0  0  0
   23.4703    0.8843   39.3249 H   0  0  0  0  0  0
   23.3647   -2.7924   38.5423 H   0  0  0  0  0  0
   24.8846   -3.6748   39.4846 H   0  0  0  0  0  0
   26.6629   -1.0748   41.5422 H   0  0  0  0  0  0
   28.5803   -1.6394   42.9433 H   0  0  0  0  0  0
   29.4187   -3.9877   43.0470 H   0  0  0  0  0  0
   26.3795   -5.2171   40.3102 H   0  0  0  0  0  0
   21.5437   -2.3722   37.2265 H   0  0  0  0  0  0
   19.9225   -0.7934   36.2861 H   0  0  0  0  0  0
  1  2  1  0  0  0
  1 39  1  0  0  0
  1 40  1  0  0  0
  1 41  1  0  0  0
  2  3  1  0  0  0
  2 42  1  0  0  0
  2 43  1  0  0  0
  3  6  1  0  0  0
  3  4  1  0  0  0
  4  5  1  0  0  0
  4 44  1  0  0  0
  4 45  1  0  0  0
  5 46  1  0  0  0
  5 47  1  0  0  0
  5 48  1  0  0  0
  6  7  1  0  0  0
  6 49  1  0  0  0
  6 50  1  0  0  0
  7  8  1  0  0  0
  7 51  1  0  0  0
  7 52  1  0  0  0
  8  9  1  0  0  0
  8 53  1  0  0  0
  8 54  1  0  0  0
  9 10  1  0  0  0
  9 55  1  0  0  0
 10 12  1  0  0  0
 10 11  2  0  0  0
 12 13  2  0  0  0
 12 21  1  0  0  0
 13 14  1  0  0  0
 13 56  1  0  0  0
 14 15  2  0  0  0
 15 17  1  0  0  0
 15 16  1  0  0  0
 16 57  1  0  0  0
 16 58  1  0  0  0
 17 21  2  0  0  0
 17 18  1  0  0  0
 18 19  2  0  0  0
 18 22  1  0  0  0
 19 20  1  0  0  0
 19 59  1  0  0  0
 20 21  1  0  0  0
 22 23  2  0  0  0
 22 38  1  0  0  0
 23 24  1  0  0  0
 23 60  1  0  0  0
 24 25  2  0  0  0
 24 61  1  0  0  0
 25 37  1  0  0  0
 25 26  1  0  0  0
 26 27  1  0  0  0
 26 62  1  0  0  0
 27 29  1  0  0  0
 27 28  2  0  0  0
 29 30  1  0  0  0
 29 63  1  0  0  0
 30 31  2  0  0  0
 30 36  1  0  0  0
 31 32  1  0  0  0
 31 64  1  0  0  0
 32 33  2  0  0  0
 32 65  1  0  0  0
 33 34  1  0  0  0
 33 66  1  0  0  0
 34 36  2  0  0  0
 34 35  1  0  0  0
 36 67  1  0  0  0
 37 38  2  0  0  0
 37 68  1  0  0  0
 38 69  1  0  0  0
M  END
> <s_m_entry_id>
185

> <s_m_entry_name>
CHEMBL1996649.1

> <s_m_job_name>
mmod_csearch_27

> <s_lp_label>
 _34

> <r_mmod_Potential_Energy-MMFF94s>
-243.634094

> <b_mmod_Minimization_Converged-MMFF94s>
1

> <r_mmod_RMS_Derivative-MMFF94s>
0.014896

> <i_mmod_Times_Found-MMFF94s>
12

> <r_mmod_Relative_Potential_Energy-MMFF94s>
0

> <i_mmod_Conformation-MMFF94s>
1

> <i_mmod_Serial_Number-MMFF94s>
34

$$$$
