CHEMBL49120.smi
                    3D
 Structure written by MMmdl.
 62 65  0  0  1  0            999 V2000
  -10.0894   -6.6229  -13.8525 C   0  0  0  0  0  0
   -9.0017   -5.6006  -13.5341 C   0  0  0  0  0  0
   -9.2343   -4.9314  -12.2388 N   0  0  0  0  0  0
   -7.9827   -4.3382  -11.7267 C   0  0  0  0  0  0
   -7.0622   -5.3863  -11.1078 C   0  0  0  0  0  0
  -10.2784   -3.8897  -12.3727 C   0  0  0  0  0  0
  -10.9553   -3.5366  -11.0368 C   0  0  0  0  0  0
  -11.9637   -2.5542  -11.2990 O   0  0  0  0  0  0
  -12.6938   -2.1147  -10.2309 C   0  0  0  0  0  0
  -13.6461   -1.1436  -10.5318 C   0  0  0  0  0  0
  -14.4602   -0.6088   -9.5272 C   0  0  0  0  0  0
  -14.3458   -1.0300   -8.1941 C   0  0  0  0  0  0
  -15.1887   -0.4570   -7.2374 N   0  0  0  0  0  0
  -15.3581   -0.6231   -5.8669 C   0  0  0  0  0  0
  -16.3083    0.1531   -5.3212 N   0  0  0  0  0  0
  -16.5177    0.0356   -3.9959 C   0  0  0  0  0  0
  -15.8171   -0.8272   -3.1873 C   0  0  0  0  0  0
  -16.0492   -0.9482   -1.7580 C   0  0  0  0  0  0
  -15.3189   -1.8175   -1.0420 C   0  0  0  0  0  0
  -14.2675   -2.6640   -1.7019 C   0  0  0  0  0  0
  -13.6142   -3.4522   -1.0189 O   0  0  0  0  0  0
  -14.0934   -2.5027   -3.0672 N   0  0  0  0  0  0
  -13.0948   -3.2904   -3.7680 C   0  0  0  0  0  0
  -14.8605   -1.5863   -3.8312 C   0  0  0  0  0  0
  -14.6266   -1.4912   -5.1565 N   0  0  0  0  0  0
  -15.5492   -1.9461    0.4107 C   0  0  0  0  0  0
  -16.4765   -2.8756    0.9162 C   0  0  0  0  0  0
  -17.4180   -3.8881   -0.1273 Cl  0  0  0  0  0  0
  -16.6812   -3.0077    2.2943 C   0  0  0  0  0  0
  -15.9635   -2.2168    3.1888 C   0  0  0  0  0  0
  -15.0413   -1.2908    2.7062 C   0  0  0  0  0  0
  -14.8338   -1.1557    1.3288 C   0  0  0  0  0  0
  -13.6786    0.0271    0.8119 Cl  0  0  0  0  0  0
  -13.3868   -2.0057   -7.9095 C   0  0  0  0  0  0
  -12.5675   -2.5452   -8.9134 C   0  0  0  0  0  0
   -9.8309   -7.1671  -14.7671 H   0  0  0  0  0  0
  -11.0657   -6.1578  -14.0139 H   0  0  0  0  0  0
  -10.1867   -7.3560  -13.0446 H   0  0  0  0  0  0
   -8.9161   -4.8698  -14.3483 H   0  0  0  0  0  0
   -8.0583   -6.1567  -13.5177 H   0  0  0  0  0  0
   -8.1975   -3.6150  -10.9324 H   0  0  0  0  0  0
   -7.4546   -3.7856  -12.5141 H   0  0  0  0  0  0
   -7.5810   -5.9512  -10.3259 H   0  0  0  0  0  0
   -6.1982   -4.8958  -10.6471 H   0  0  0  0  0  0
   -6.6795   -6.0945  -11.8477 H   0  0  0  0  0  0
  -11.0806   -4.2226  -13.0421 H   0  0  0  0  0  0
   -9.8761   -2.9830  -12.8449 H   0  0  0  0  0  0
  -10.2246   -3.1272  -10.3314 H   0  0  0  0  0  0
  -11.4145   -4.4406  -10.6179 H   0  0  0  0  0  0
  -13.7586   -0.7975  -11.5561 H   0  0  0  0  0  0
  -15.1910    0.1472   -9.8037 H   0  0  0  0  0  0
  -15.8409    0.2409   -7.5643 H   0  0  0  0  0  0
  -17.2953    0.6834   -3.6011 H   0  0  0  0  0  0
  -16.8135   -0.3275   -1.3015 H   0  0  0  0  0  0
  -12.5617   -3.9632   -3.0904 H   0  0  0  0  0  0
  -12.3620   -2.6210   -4.2302 H   0  0  0  0  0  0
  -13.5840   -3.8978   -4.5364 H   0  0  0  0  0  0
  -17.3978   -3.7317    2.6761 H   0  0  0  0  0  0
  -16.1197   -2.3245    4.2597 H   0  0  0  0  0  0
  -14.4810   -0.6777    3.4087 H   0  0  0  0  0  0
  -13.2511   -2.3736   -6.8978 H   0  0  0  0  0  0
  -11.8450   -3.3007   -8.6234 H   0  0  0  0  0  0
  1  2  1  0  0  0
  1 36  1  0  0  0
  1 37  1  0  0  0
  1 38  1  0  0  0
  2  3  1  0  0  0
  2 39  1  0  0  0
  2 40  1  0  0  0
  3  6  1  0  0  0
  3  4  1  0  0  0
  4  5  1  0  0  0
  4 41  1  0  0  0
  4 42  1  0  0  0
  5 43  1  0  0  0
  5 44  1  0  0  0
  5 45  1  0  0  0
  6  7  1  0  0  0
  6 46  1  0  0  0
  6 47  1  0  0  0
  7  8  1  0  0  0
  7 48  1  0  0  0
  7 49  1  0  0  0
  8  9  1  0  0  0
  9 10  2  0  0  0
  9 35  1  0  0  0
 10 11  1  0  0  0
 10 50  1  0  0  0
 11 12  2  0  0  0
 11 51  1  0  0  0
 12 34  1  0  0  0
 12 13  1  0  0  0
 13 14  1  0  0  0
 13 52  1  0  0  0
 14 15  2  0  0  0
 14 25  1  0  0  0
 15 16  1  0  0  0
 16 17  2  0  0  0
 16 53  1  0  0  0
 17 18  1  0  0  0
 17 24  1  0  0  0
 18 19  2  0  0  0
 18 54  1  0  0  0
 19 20  1  0  0  0
 19 26  1  0  0  0
 20 22  1  0  0  0
 20 21  2  0  0  0
 22 24  1  0  0  0
 22 23  1  0  0  0
 23 55  1  0  0  0
 23 56  1  0  0  0
 23 57  1  0  0  0
 24 25  2  0  0  0
 26 27  2  0  0  0
 26 32  1  0  0  0
 27 29  1  0  0  0
 27 28  1  0  0  0
 29 30  2  0  0  0
 29 58  1  0  0  0
 30 31  1  0  0  0
 30 59  1  0  0  0
 31 32  2  0  0  0
 31 60  1  0  0  0
 32 33  1  0  0  0
 34 35  2  0  0  0
 34 61  1  0  0  0
 35 62  1  0  0  0
M  END
> <s_m_entry_id>
108

> <s_m_entry_name>
CHEMBL49120.1

> <s_m_job_name>
mmod_csearch_21

> <s_lp_label>
 _4

> <r_mmod_Potential_Energy-MMFF94s>
-51.183403

> <b_mmod_Minimization_Converged-MMFF94s>
1

> <r_mmod_RMS_Derivative-MMFF94s>
0.008632

> <i_mmod_Times_Found-MMFF94s>
56

> <r_mmod_Relative_Potential_Energy-MMFF94s>
0

> <i_mmod_Conformation-MMFF94s>
1

> <i_mmod_Serial_Number-MMFF94s>
4

$$$$
