CHEMBL1966175.smi
                    3D
 Structure written by MMmdl.
 42 45  0  0  1  0            999 V2000
    2.8852    2.3898   -0.2117 C   0  0  0  0  0  0
    2.7845    0.9116   -0.6067 C   0  0  1  0  0  0
    1.3235    0.5858   -0.9854 C   0  0  0  0  0  0
    1.1703   -0.8503   -1.4819 C   0  0  0  0  0  0
    2.0936   -1.0842   -2.5902 N   0  0  0  0  0  0
    3.5014   -0.8943   -2.2371 C   0  0  0  0  0  0
    3.7543    0.5520   -1.7734 C   0  0  2  0  0  0
    5.1948    0.6979   -1.3765 C   0  0  0  0  0  0
    5.6702    0.4752   -0.1564 N   0  0  0  0  0  0
    7.0123    0.7775   -0.1968 C   0  0  0  0  0  0
    7.3790    1.1667   -1.4600 C   0  0  0  0  0  0
    8.6267    1.5920   -2.0560 C   0  0  0  0  0  0
    8.7344    1.8964   -3.3252 N   0  0  0  0  0  0
    7.5652    1.7561   -4.0058 C   0  0  0  0  0  0
    7.4164    1.9731   -5.3462 N   0  0  0  0  0  0
    8.1588    2.2683   -5.9649 H   0  0  0  0  0  0
    6.1128    1.6979   -5.7045 C   0  0  0  0  0  0
    5.4101    1.3038   -4.5768 C   0  0  0  0  0  0
    6.3336    1.3658   -3.5296 C   0  0  0  0  0  0
    6.2225    1.0760   -2.2028 N   0  0  0  0  0  0
    1.7478   -1.2732   -3.9212 C   0  0  0  0  0  0
    2.5957   -1.2676   -4.8177 O   0  0  0  0  0  0
    0.2969   -1.5043   -4.2757 C   0  0  0  0  0  0
   -0.4035   -0.2277   -4.3984 C   0  0  0  0  0  0
   -0.9817    0.7768   -4.4633 N   0  0  0  0  0  0
    2.6610    3.0429   -1.0620 H   0  0  0  0  0  0
    3.8853    2.6418    0.1537 H   0  0  0  0  0  0
    2.1761    2.6242    0.5896 H   0  0  0  0  0  0
    3.0416    0.3091    0.2756 H   0  0  0  0  0  0
    0.9885    1.2757   -1.7708 H   0  0  0  0  0  0
    0.6692    0.7425   -0.1197 H   0  0  0  0  0  0
    1.4170   -1.5617   -0.6852 H   0  0  0  0  0  0
    0.1327   -1.0276   -1.7675 H   0  0  0  0  0  0
    3.7367   -1.6085   -1.4369 H   0  0  0  0  0  0
    4.1530   -1.1489   -3.0799 H   0  0  0  0  0  0
    3.5199    1.2403   -2.5924 H   0  0  0  0  0  0
    7.6305    0.6966    0.6881 H   0  0  0  0  0  0
    9.5211    1.6647   -1.4155 H   0  0  0  0  0  0
    5.8006    1.7941   -6.7362 H   0  0  0  0  0  0
    4.3710    1.0047   -4.5818 H   0  0  0  0  0  0
   -0.1762   -2.1636   -3.5425 H   0  0  0  0  0  0
    0.2645   -2.0411   -5.2311 H   0  0  0  0  0  0
  1  2  1  0  0  0
  1 26  1  0  0  0
  1 27  1  0  0  0
  1 28  1  0  0  0
  2  7  1  0  0  0
  2  3  1  0  0  0
  2 29  1  0  0  0
  3  4  1  0  0  0
  3 30  1  0  0  0
  3 31  1  0  0  0
  4  5  1  0  0  0
  4 32  1  0  0  0
  4 33  1  0  0  0
  5  6  1  0  0  0
  5 21  1  0  0  0
  6  7  1  0  0  0
  6 34  1  0  0  0
  6 35  1  0  0  0
  7  8  1  0  0  0
  7 36  1  0  0  0
  8  9  2  0  0  0
  8 20  1  0  0  0
  9 10  1  0  0  0
 10 11  2  0  0  0
 10 37  1  0  0  0
 11 12  1  0  0  0
 11 20  1  0  0  0
 12 13  2  0  0  0
 12 38  1  0  0  0
 13 14  1  0  0  0
 14 15  1  0  0  0
 14 19  2  0  0  0
 15 17  1  0  0  0
 15 16  1  0  0  0
 17 18  2  0  0  0
 17 39  1  0  0  0
 18 19  1  0  0  0
 18 40  1  0  0  0
 19 20  1  0  0  0
 21 23  1  0  0  0
 21 22  2  0  0  0
 23 24  1  0  0  0
 23 41  1  0  0  0
 23 42  1  0  0  0
 24 25  3  0  0  0
M  END
> <s_m_entry_id>
137

> <s_m_entry_name>
CHEMBL1966175.1

> <s_m_job_name>
mmod_csearch_25

> <s_lp_label>
 _1

> <r_mmod_Potential_Energy-MMFF94s>
98.962547

> <b_mmod_Minimization_Converged-MMFF94s>
1

> <r_mmod_RMS_Derivative-MMFF94s>
0.007488

> <i_mmod_Times_Found-MMFF94s>
213

> <r_mmod_Relative_Potential_Energy-MMFF94s>
0

> <i_mmod_Conformation-MMFF94s>
1

> <i_mmod_Serial_Number-MMFF94s>
1

$$$$
