CHEMBL1994159.smi
                    3D
 Structure written by MMmdl.
 29 31  0  0  1  0            999 V2000
    7.5772   -0.0229    6.0807 C   0  0  0  0  0  0
    6.7497   -1.1059    5.4401 C   0  0  0  0  0  0
    6.9292   -2.2917    5.7102 O   0  0  0  0  0  0
    5.6982   -0.7278    4.4503 C   0  0  0  0  0  0
    5.5445    0.5856    3.9913 C   0  0  0  0  0  0
    4.5412    0.8907    3.0697 C   0  0  0  0  0  0
    3.6954   -0.1136    2.5971 C   0  0  0  0  0  0
    3.8509   -1.4350    3.0349 C   0  0  0  0  0  0
    4.8456   -1.7357    3.9721 C   0  0  0  0  0  0
    2.9193   -2.4753    2.5070 C   0  0  0  0  0  0
    3.4749   -3.8563    2.3370 C   0  0  0  0  0  0
    2.6528   -4.8063    1.8723 C   0  0  0  0  0  0
    1.3186   -4.4745    1.5590 C   0  0  0  0  0  0
    0.3247   -5.2044    1.0958 N   0  0  0  0  0  0
   -0.7309   -4.3344    0.9782 C   0  0  0  0  0  0
   -0.3726   -3.0664    1.3710 C   0  0  0  0  0  0
    0.9398   -3.1572    1.7436 N   0  0  0  0  0  0
    1.7008   -2.1281    2.2067 N   0  0  0  0  0  0
    8.2289    0.4424    5.3370 H   0  0  0  0  0  0
    8.2048   -0.4651    6.8609 H   0  0  0  0  0  0
    6.9316    0.7212    6.5545 H   0  0  0  0  0  0
    6.1891    1.3897    4.3350 H   0  0  0  0  0  0
    4.4149    1.9125    2.7181 H   0  0  0  0  0  0
    2.9147    0.1391    1.8814 H   0  0  0  0  0  0
    4.9546   -2.7451    4.3624 H   0  0  0  0  0  0
    4.5125   -4.0699    2.5563 H   0  0  0  0  0  0
    2.9867   -5.8253    1.7157 H   0  0  0  0  0  0
   -1.6948   -4.6680    0.6159 H   0  0  0  0  0  0
   -0.9113   -2.1332    1.4223 H   0  0  0  0  0  0
  1  2  1  0  0  0
  1 19  1  0  0  0
  1 20  1  0  0  0
  1 21  1  0  0  0
  2  4  1  0  0  0
  2  3  2  0  0  0
  4  5  2  0  0  0
  4  9  1  0  0  0
  5  6  1  0  0  0
  5 22  1  0  0  0
  6  7  2  0  0  0
  6 23  1  0  0  0
  7  8  1  0  0  0
  7 24  1  0  0  0
  8  9  2  0  0  0
  8 10  1  0  0  0
  9 25  1  0  0  0
 10 11  1  0  0  0
 10 18  2  0  0  0
 11 12  2  0  0  0
 11 26  1  0  0  0
 12 13  1  0  0  0
 12 27  1  0  0  0
 13 14  2  0  0  0
 13 17  1  0  0  0
 14 15  1  0  0  0
 15 16  2  0  0  0
 15 28  1  0  0  0
 16 17  1  0  0  0
 16 29  1  0  0  0
 17 18  1  0  0  0
M  END
> <s_m_entry_id>
765

> <s_m_job_name>
mmod_csearch_9

> <r_mmod_Potential_Energy-MMFF94s>
246.650436

> <b_mmod_Minimization_Converged-MMFF94s>
1

> <r_mmod_RMS_Derivative-MMFF94s>
0.005244

> <i_mmod_Times_Found-MMFF94s>
259

> <r_mmod_Relative_Potential_Energy-MMFF94s>
0

> <i_mmod_Conformation-MMFF94s>
1

> <s_lp_label>
 _21

> <i_mmod_Serial_Number-MMFF94s>
21

$$$$
