CHEMBL1998953.smi
                    3D
 Structure written by MMmdl.
 39 42  0  0  1  0            999 V2000
    0.6349    1.6836    0.0796 C   0  0  0  0  0  0
    1.3819    0.3769   -0.1724 C   0  0  0  0  0  0
    0.8510   -0.7534    0.7088 C   0  0  0  0  0  0
   -0.6031   -0.8650    0.5695 N   0  0  0  0  0  0
   -1.3694    0.3530    0.8292 C   0  0  0  0  0  0
   -0.8696    1.4793   -0.0745 C   0  0  0  0  0  0
   -1.1375   -2.0329    1.1196 C   0  0  0  0  0  0
   -1.9010   -1.9374    2.2434 N   0  0  0  0  0  0
   -2.3731   -3.0579    2.8182 C   0  0  0  0  0  0
   -2.1981   -4.3258    2.4225 N   0  0  0  0  0  0
   -1.4770   -4.3851    1.2947 C   0  0  0  0  0  0
   -1.1652   -5.5509    0.6551 N   0  0  0  0  0  0
   -1.4531   -6.4619    0.9809 H   0  0  0  0  0  0
   -0.4610   -5.2799   -0.4862 C   0  0  0  0  0  0
   -0.3054   -3.9063   -0.5764 C   0  0  0  0  0  0
    0.3299   -3.2848   -1.7273 C   0  0  0  0  0  0
   -0.3319   -2.2768   -2.4380 C   0  0  0  0  0  0
    0.2675   -1.6882   -3.5538 C   0  0  0  0  0  0
    1.5331   -2.1021   -3.9659 C   0  0  0  0  0  0
    2.2002   -3.1053   -3.2646 C   0  0  0  0  0  0
    1.6005   -3.6969   -2.1503 C   0  0  0  0  0  0
   -0.9324   -3.3255    0.5799 C   0  0  0  0  0  0
    0.8564    2.0458    1.0909 H   0  0  0  0  0  0
    0.9806    2.4510   -0.6217 H   0  0  0  0  0  0
    2.4523    0.5191    0.0133 H   0  0  0  0  0  0
    1.2745    0.1022   -1.2279 H   0  0  0  0  0  0
    1.3661   -1.6789    0.4310 H   0  0  0  0  0  0
    1.1047   -0.5499    1.7577 H   0  0  0  0  0  0
   -2.4348    0.1930    0.6200 H   0  0  0  0  0  0
   -1.2721    0.6534    1.8806 H   0  0  0  0  0  0
   -1.0960    1.2373   -1.1207 H   0  0  0  0  0  0
   -1.3981    2.4089    0.1640 H   0  0  0  0  0  0
   -2.9656   -2.9152    3.7164 H   0  0  0  0  0  0
   -0.1576   -6.0797   -1.1492 H   0  0  0  0  0  0
   -1.3174   -1.9398   -2.1238 H   0  0  0  0  0  0
   -0.2541   -0.9042   -4.0961 H   0  0  0  0  0  0
    1.9992   -1.6421   -4.8333 H   0  0  0  0  0  0
    3.1871   -3.4284   -3.5848 H   0  0  0  0  0  0
    2.1343   -4.4753   -1.6108 H   0  0  0  0  0  0
  1  6  1  0  0  0
  1  2  1  0  0  0
  1 23  1  0  0  0
  1 24  1  0  0  0
  2  3  1  0  0  0
  2 25  1  0  0  0
  2 26  1  0  0  0
  3  4  1  0  0  0
  3 27  1  0  0  0
  3 28  1  0  0  0
  4  5  1  0  0  0
  4  7  1  0  0  0
  5  6  1  0  0  0
  5 29  1  0  0  0
  5 30  1  0  0  0
  6 31  1  0  0  0
  6 32  1  0  0  0
  7  8  2  0  0  0
  7 22  1  0  0  0
  8  9  1  0  0  0
  9 10  2  0  0  0
  9 33  1  0  0  0
 10 11  1  0  0  0
 11 22  2  0  0  0
 11 12  1  0  0  0
 12 14  1  0  0  0
 12 13  1  0  0  0
 14 15  2  0  0  0
 14 34  1  0  0  0
 15 22  1  0  0  0
 15 16  1  0  0  0
 16 17  2  0  0  0
 16 21  1  0  0  0
 17 18  1  0  0  0
 17 35  1  0  0  0
 18 19  2  0  0  0
 18 36  1  0  0  0
 19 20  1  0  0  0
 19 37  1  0  0  0
 20 21  2  0  0  0
 20 38  1  0  0  0
 21 39  1  0  0  0
M  END
> <s_m_entry_id>
192

> <s_m_entry_name>
CHEMBL1998953.1

> <s_m_job_name>
mmod_csearch_27

> <s_lp_label>
 _41

> <r_mmod_Potential_Energy-MMFF94s>
32.495144

> <b_mmod_Minimization_Converged-MMFF94s>
1

> <r_mmod_RMS_Derivative-MMFF94s>
0.005824

> <i_mmod_Times_Found-MMFF94s>
1155

> <r_mmod_Relative_Potential_Energy-MMFF94s>
0

> <i_mmod_Conformation-MMFF94s>
1

> <i_mmod_Serial_Number-MMFF94s>
41

$$$$
