CHEMBL1974328.smi
                    3D
 Structure written by MMmdl.
 49 51  0  0  1  0            999 V2000
   11.4744    1.4663   -0.8310 C   0  0  0  0  0  0
   10.0490    1.4626   -0.3653 C   0  0  0  0  0  0
    9.5412    2.5300    0.3769 C   0  0  0  0  0  0
    8.2070    2.5281    0.7756 C   0  0  0  0  0  0
    7.3667    1.4656    0.4265 C   0  0  0  0  0  0
    7.8383    0.3886   -0.3269 C   0  0  0  0  0  0
    7.0494   -0.7030   -0.7250 N   0  0  0  0  0  0
    5.6799   -1.0152   -0.5871 C   0  0  0  0  0  0
    4.8301   -0.1305    0.0002 N   0  0  0  0  0  0
    3.5238   -0.4511    0.1273 C   0  0  0  0  0  0
    2.7645    0.5083    0.7332 N   0  0  0  0  0  0
    1.3337    0.4716    1.0020 C   0  0  1  0  0  0
    1.0805    1.1118    2.3764 C   0  0  0  0  0  0
   -0.4092    1.1751    2.7016 C   0  0  0  0  0  0
   -1.1919    1.9036    1.6141 C   0  0  0  0  0  0
   -0.9493    1.2925    0.2356 C   0  0  0  0  0  0
    0.5460    1.2371   -0.1002 C   0  0  2  0  0  0
    0.7217    0.6286   -1.4289 N   0  0  0  0  0  0
    3.0596   -1.6739   -0.3494 C   0  0  0  0  0  0
    3.8480   -2.6001   -0.9441 N   0  0  0  0  0  0
    5.1630   -2.2395   -1.0499 C   0  0  0  0  0  0
    6.0407   -3.2540   -1.7181 C   0  0  0  0  0  0
    7.2384   -3.0773   -1.9124 O   0  0  0  0  0  0
    5.4158   -4.4085   -2.1108 N   0  0  0  0  0  0
    9.1894    0.4107   -0.7199 C   0  0  0  0  0  0
   11.5434    1.9274   -1.8210 H   0  0  0  0  0  0
   11.8693    0.4464   -0.8859 H   0  0  0  0  0  0
   12.1119    2.0236   -0.1365 H   0  0  0  0  0  0
   10.1794    3.3666    0.6501 H   0  0  0  0  0  0
    7.8129    3.3555    1.3595 H   0  0  0  0  0  0
    6.3365    1.5025    0.7625 H   0  0  0  0  0  0
    7.5671   -1.4317   -1.2228 H   0  0  0  0  0  0
    3.2963    1.3341    0.9832 H   0  0  0  0  0  0
    0.9742   -0.5635    1.0586 H   0  0  0  0  0  0
    1.5009    2.1259    2.4034 H   0  0  0  0  0  0
    1.6001    0.5402    3.1553 H   0  0  0  0  0  0
   -0.8019    0.1572    2.8152 H   0  0  0  0  0  0
   -0.5550    1.6823    3.6621 H   0  0  0  0  0  0
   -2.2622    1.8720    1.8472 H   0  0  0  0  0  0
   -0.8995    2.9608    1.6002 H   0  0  0  0  0  0
   -1.3787    0.2822    0.2100 H   0  0  0  0  0  0
   -1.4854    1.8844   -0.5167 H   0  0  0  0  0  0
    0.9313    2.2642   -0.1583 H   0  0  0  0  0  0
    1.7190    0.6585   -1.6541 H   0  0  0  0  0  0
    0.2655    1.2118   -2.1303 H   0  0  0  0  0  0
    2.0140   -1.9510   -0.2795 H   0  0  0  0  0  0
    4.4216   -4.5210   -1.9408 H   0  0  0  0  0  0
    5.9421   -5.1376   -2.5695 H   0  0  0  0  0  0
    9.5843   -0.4098   -1.3168 H   0  0  0  0  0  0
  1  2  1  0  0  0
  1 26  1  0  0  0
  1 27  1  0  0  0
  1 28  1  0  0  0
  2  3  2  0  0  0
  2 25  1  0  0  0
  3  4  1  0  0  0
  3 29  1  0  0  0
  4  5  2  0  0  0
  4 30  1  0  0  0
  5  6  1  0  0  0
  5 31  1  0  0  0
  6 25  2  0  0  0
  6  7  1  0  0  0
  7  8  1  0  0  0
  7 32  1  0  0  0
  8 21  1  0  0  0
  8  9  2  0  0  0
  9 10  1  0  0  0
 10 19  2  0  0  0
 10 11  1  0  0  0
 11 12  1  0  0  0
 11 33  1  0  0  0
 12 17  1  0  0  0
 12 13  1  0  0  0
 12 34  1  0  0  0
 13 14  1  0  0  0
 13 35  1  0  0  0
 13 36  1  0  0  0
 14 15  1  0  0  0
 14 37  1  0  0  0
 14 38  1  0  0  0
 15 16  1  0  0  0
 15 39  1  0  0  0
 15 40  1  0  0  0
 16 17  1  0  0  0
 16 41  1  0  0  0
 16 42  1  0  0  0
 17 18  1  0  0  0
 17 43  1  0  0  0
 18 44  1  0  0  0
 18 45  1  0  0  0
 19 20  1  0  0  0
 19 46  1  0  0  0
 20 21  2  0  0  0
 21 22  1  0  0  0
 22 24  1  0  0  0
 22 23  2  0  0  0
 24 47  1  0  0  0
 24 48  1  0  0  0
 25 49  1  0  0  0
M  END
> <s_m_entry_id>
148

> <s_m_entry_name>
CHEMBL1974328.1

> <s_m_job_name>
mmod_csearch_26

> <s_lp_label>
 _4

> <r_mmod_Potential_Energy-MMFF94s>
399.916382

> <b_mmod_Minimization_Converged-MMFF94s>
1

> <r_mmod_RMS_Derivative-MMFF94s>
0.012297

> <i_mmod_Times_Found-MMFF94s>
192

> <r_mmod_Relative_Potential_Energy-MMFF94s>
0

> <i_mmod_Conformation-MMFF94s>
1

> <i_mmod_Serial_Number-MMFF94s>
4

$$$$
