CHEMBL1980329.smi
                    3D
 Structure written by MMmdl.
 37 40  0  0  1  0            999 V2000
    0.8621    0.7386    1.7575 O   0  0  0  0  0  0
    2.1726    0.7808    1.3861 C   0  0  0  0  0  0
    2.7345    1.9264    0.8358 C   0  0  0  0  0  0
    4.0844    1.9217    0.4701 C   0  0  0  0  0  0
    4.8823    0.7776    0.6486 C   0  0  0  0  0  0
    4.2841   -0.3646    1.2075 C   0  0  0  0  0  0
    2.9361   -0.3630    1.5751 C   0  0  0  0  0  0
    6.3021    0.7753    0.2592 C   0  0  0  0  0  0
    7.1898    1.7599    0.7585 C   0  0  0  0  0  0
    8.5477    1.7846    0.4054 C   0  0  0  0  0  0
    9.0234    0.8077   -0.4465 C   0  0  0  0  0  0
   10.3308    0.5098   -1.0421 C   0  0  0  0  0  0
   11.5575    1.0385   -0.9228 C   0  0  0  0  0  0
   11.8870    2.0908   -0.0413 C   0  0  0  0  0  0
   11.8460    2.2494    1.3297 C   0  0  0  0  0  0
   12.3455    3.5405    1.6281 C   0  0  0  0  0  0
   12.6952    4.1293    0.4341 C   0  0  0  0  0  0
   12.4312    3.2354   -0.5723 N   0  0  0  0  0  0
   12.5963    3.4021   -1.5566 H   0  0  0  0  0  0
   10.1359   -0.6669   -1.9656 C   0  0  0  0  0  0
   10.9684   -1.2030   -2.6717 O   0  0  0  0  0  0
    8.8007   -1.0072   -1.8376 N   0  0  0  0  0  0
    8.1432   -0.1530   -0.9561 C   0  0  0  0  0  0
    6.8021   -0.1977   -0.6222 C   0  0  0  0  0  0
    0.4569    1.6006    1.5676 H   0  0  0  0  0  0
    2.1462    2.8252    0.6814 H   0  0  0  0  0  0
    4.5118    2.8208    0.0299 H   0  0  0  0  0  0
    4.8705   -1.2660    1.3736 H   0  0  0  0  0  0
    2.4866   -1.2513    2.0097 H   0  0  0  0  0  0
    6.8197    2.5216    1.4443 H   0  0  0  0  0  0
    9.1889    2.5659    0.7962 H   0  0  0  0  0  0
   12.3672    0.6272   -1.5255 H   0  0  0  0  0  0
   11.4956    1.5118    2.0406 H   0  0  0  0  0  0
   12.4470    3.9874    2.6086 H   0  0  0  0  0  0
   13.1172    5.1005    0.2134 H   0  0  0  0  0  0
    8.3816   -1.7721   -2.3433 H   0  0  0  0  0  0
    6.1504   -0.9555   -1.0449 H   0  0  0  0  0  0
  1  2  1  0  0  0
  1 25  1  0  0  0
  2  3  2  0  0  0
  2  7  1  0  0  0
  3  4  1  0  0  0
  3 26  1  0  0  0
  4  5  2  0  0  0
  4 27  1  0  0  0
  5  6  1  0  0  0
  5  8  1  0  0  0
  6  7  2  0  0  0
  6 28  1  0  0  0
  7 29  1  0  0  0
  8  9  2  0  0  0
  8 24  1  0  0  0
  9 10  1  0  0  0
  9 30  1  0  0  0
 10 11  2  0  0  0
 10 31  1  0  0  0
 11 23  1  0  0  0
 11 12  1  0  0  0
 12 20  1  0  0  0
 12 13  2  0  0  0
 13 14  1  0  0  0
 13 32  1  0  0  0
 14 15  2  0  0  0
 14 18  1  0  0  0
 15 16  1  0  0  0
 15 33  1  0  0  0
 16 17  2  0  0  0
 16 34  1  0  0  0
 17 18  1  0  0  0
 17 35  1  0  0  0
 18 19  1  0  0  0
 20 22  1  0  0  0
 20 21  2  0  0  0
 22 23  1  0  0  0
 22 36  1  0  0  0
 23 24  2  0  0  0
 24 37  1  0  0  0
M  END
> <s_m_entry_id>
10073

> <s_m_job_name>
mmod_csearch_12

> <r_mmod_Potential_Energy-MMFF94s>
154.978226

> <b_mmod_Minimization_Converged-MMFF94s>
1

> <r_mmod_RMS_Derivative-MMFF94s>
0.009695

> <i_mmod_Times_Found-MMFF94s>
180

> <r_mmod_Relative_Potential_Energy-MMFF94s>
0

> <i_mmod_Conformation-MMFF94s>
1

> <s_lp_label>
 _42

> <i_mmod_Serial_Number-MMFF94s>
42

$$$$
