CHEMBL1974617.smi
                    3D
 Structure written by MMmdl.
 25 27  0  0  1  0            999 V2000
    2.7928   -0.6831    1.4057 O   0  0  0  0  0  0
    2.4440   -0.3358    0.0665 C   0  0  0  0  0  0
    3.1686   -1.1669   -0.9321 C   0  0  0  0  0  0
    2.6368   -2.0046   -1.9382 C   0  0  0  0  0  0
    3.7376   -2.5420   -2.5665 C   0  0  0  0  0  0
    4.8594   -2.0497   -1.9632 O   0  0  0  0  0  0
    4.5077   -1.1912   -0.9372 N   0  0  0  0  0  0
    3.9434   -3.4728   -3.6739 C   0  0  0  0  0  0
    5.2371   -3.8178   -4.1021 C   0  0  0  0  0  0
    5.4624   -4.7075   -5.1625 C   0  0  0  0  0  0
    4.3363   -5.2456   -5.7859 C   0  0  0  0  0  0
    4.2020   -6.1251   -6.8284 N   0  0  0  0  0  0
    4.9403   -6.5674   -7.3636 H   0  0  0  0  0  0
    2.9259   -6.4078   -7.1471 N   0  0  0  0  0  0
    2.2212   -5.6829   -6.2745 C   0  0  0  0  0  0
    3.0395   -4.9355   -5.3987 C   0  0  0  0  0  0
    2.8346   -4.0401   -4.3319 C   0  0  0  0  0  0
    3.7627   -0.7934    1.3999 H   0  0  0  0  0  0
    2.6777    0.7237   -0.0824 H   0  0  0  0  0  0
    1.3612   -0.4568   -0.0372 H   0  0  0  0  0  0
    1.5976   -2.1887   -2.1638 H   0  0  0  0  0  0
    6.1088   -3.3905   -3.6068 H   0  0  0  0  0  0
    6.4703   -4.9597   -5.4760 H   0  0  0  0  0  0
    1.1404   -5.7266   -6.3101 H   0  0  0  0  0  0
    1.8189   -3.8019   -4.0321 H   0  0  0  0  0  0
  1  2  1  0  0  0
  1 18  1  0  0  0
  2  3  1  0  0  0
  2 19  1  0  0  0
  2 20  1  0  0  0
  3  4  1  0  0  0
  3  7  2  0  0  0
  4  5  2  0  0  0
  4 21  1  0  0  0
  5  6  1  0  0  0
  5  8  1  0  0  0
  6  7  1  0  0  0
  8  9  2  0  0  0
  8 17  1  0  0  0
  9 10  1  0  0  0
  9 22  1  0  0  0
 10 11  2  0  0  0
 10 23  1  0  0  0
 11 12  1  0  0  0
 11 16  1  0  0  0
 12 14  1  0  0  0
 12 13  1  0  0  0
 14 15  2  0  0  0
 15 16  1  0  0  0
 15 24  1  0  0  0
 16 17  2  0  0  0
 17 25  1  0  0  0
M  END
> <s_m_entry_id>
9836

> <s_m_job_name>
mmod_csearch_10

> <r_mmod_Potential_Energy-MMFF94s>
171.128204

> <b_mmod_Minimization_Converged-MMFF94s>
1

> <r_mmod_RMS_Derivative-MMFF94s>
0.009792

> <i_mmod_Times_Found-MMFF94s>
553

> <r_mmod_Relative_Potential_Energy-MMFF94s>
0

> <i_mmod_Conformation-MMFF94s>
1

> <s_lp_label>
 _5

> <i_mmod_Serial_Number-MMFF94s>
5

$$$$
