CHEMBL2006765.smi
                    3D
 Structure written by MMmdl.
 47 49  0  0  1  0            999 V2000
    3.1603    1.5329   -5.0385 C   0  0  0  0  0  0
    3.8132    2.9019   -4.9103 C   0  0  0  0  0  0
    4.1944    3.2389   -3.4703 C   0  0  0  0  0  0
    3.0389    3.3610   -2.6055 N   0  0  0  0  0  0
    2.3076    4.5282   -2.5324 C   0  0  0  0  0  0
    2.5973    5.5486   -3.1467 O   0  0  0  0  0  0
    1.1286    4.5141   -1.6237 C   0  0  0  0  0  0
    0.7279    5.7147   -1.0343 C   0  0  0  0  0  0
   -0.3750    5.7413   -0.1733 C   0  0  0  0  0  0
   -1.1105    4.5792    0.1127 C   0  0  0  0  0  0
   -2.1975    4.6776    0.9856 N   0  0  0  0  0  0
   -3.1233    3.7710    1.5021 C   0  0  0  0  0  0
   -4.0282    4.3356    2.3329 N   0  0  0  0  0  0
   -4.9939    3.5844    2.9161 C   0  0  0  0  0  0
   -5.9090    4.1739    3.7592 N   0  0  0  0  0  0
   -5.8456    5.6128    4.0236 C   0  0  0  0  0  0
   -6.9318    6.1141    4.9799 C   0  0  0  0  0  0
   -8.1704    5.8737    4.4909 F   0  0  0  0  0  0
   -6.8477    5.5068    6.1862 F   0  0  0  0  0  0
   -6.8245    7.4465    5.1845 F   0  0  0  0  0  0
   -5.0180    2.2141    2.6287 C   0  0  0  0  0  0
   -5.8099    1.0875    2.9925 C   0  0  0  0  0  0
   -5.2929   -0.0150    2.3433 C   0  0  0  0  0  0
   -4.2181    0.4051    1.6012 N   0  0  0  0  0  0
   -3.6318   -0.1710    1.0147 H   0  0  0  0  0  0
   -4.0418    1.7515    1.7664 C   0  0  0  0  0  0
   -3.0797    2.4706    1.1796 N   0  0  0  0  0  0
   -0.7056    3.3896   -0.5018 C   0  0  0  0  0  0
    0.3986    3.3514   -1.3654 C   0  0  0  0  0  0
    2.9477    1.3140   -6.0898 H   0  0  0  0  0  0
    2.2149    1.4887   -4.4889 H   0  0  0  0  0  0
    3.8189    0.7470   -4.6553 H   0  0  0  0  0  0
    3.1338    3.6627   -5.3118 H   0  0  0  0  0  0
    4.7183    2.9190   -5.5284 H   0  0  0  0  0  0
    4.7517    4.1820   -3.4483 H   0  0  0  0  0  0
    4.8375    2.4592   -3.0485 H   0  0  0  0  0  0
    2.8102    2.5825   -2.0040 H   0  0  0  0  0  0
    1.2737    6.6335   -1.2399 H   0  0  0  0  0  0
   -0.6565    6.6923    0.2737 H   0  0  0  0  0  0
   -2.4070    5.5926    1.3568 H   0  0  0  0  0  0
   -6.6291    3.6079    4.1889 H   0  0  0  0  0  0
   -5.9436    6.1619    3.0796 H   0  0  0  0  0  0
   -4.8696    5.8615    4.4571 H   0  0  0  0  0  0
   -6.6645    1.0827    3.6560 H   0  0  0  0  0  0
   -5.5943   -1.0543    2.3445 H   0  0  0  0  0  0
   -1.2472    2.4641   -0.3320 H   0  0  0  0  0  0
    0.6486    2.4100   -1.8450 H   0  0  0  0  0  0
  1  2  1  0  0  0
  1 30  1  0  0  0
  1 31  1  0  0  0
  1 32  1  0  0  0
  2  3  1  0  0  0
  2 33  1  0  0  0
  2 34  1  0  0  0
  3  4  1  0  0  0
  3 35  1  0  0  0
  3 36  1  0  0  0
  4  5  1  0  0  0
  4 37  1  0  0  0
  5  7  1  0  0  0
  5  6  2  0  0  0
  7  8  2  0  0  0
  7 29  1  0  0  0
  8  9  1  0  0  0
  8 38  1  0  0  0
  9 10  2  0  0  0
  9 39  1  0  0  0
 10 28  1  0  0  0
 10 11  1  0  0  0
 11 12  1  0  0  0
 11 40  1  0  0  0
 12 13  2  0  0  0
 12 27  1  0  0  0
 13 14  1  0  0  0
 14 21  2  0  0  0
 14 15  1  0  0  0
 15 16  1  0  0  0
 15 41  1  0  0  0
 16 17  1  0  0  0
 16 42  1  0  0  0
 16 43  1  0  0  0
 17 20  1  0  0  0
 17 19  1  0  0  0
 17 18  1  0  0  0
 21 22  1  0  0  0
 21 26  1  0  0  0
 22 23  2  0  0  0
 22 44  1  0  0  0
 23 24  1  0  0  0
 23 45  1  0  0  0
 24 26  1  0  0  0
 24 25  1  0  0  0
 26 27  2  0  0  0
 28 29  2  0  0  0
 28 46  1  0  0  0
 29 47  1  0  0  0
M  END
> <s_m_entry_id>
205

> <s_m_entry_name>
CHEMBL2006765.1

> <s_m_job_name>
mmod_csearch_27

> <s_lp_label>
 _54

> <r_mmod_Potential_Energy-MMFF94s>
-33.10548

> <b_mmod_Minimization_Converged-MMFF94s>
1

> <r_mmod_RMS_Derivative-MMFF94s>
0.013383

> <i_mmod_Times_Found-MMFF94s>
32

> <r_mmod_Relative_Potential_Energy-MMFF94s>
0

> <i_mmod_Conformation-MMFF94s>
1

> <i_mmod_Serial_Number-MMFF94s>
54

$$$$
