CHEMBL1977931.smi
                    3D
 Structure written by MMmdl.
 29 31  0  0  1  0            999 V2000
    4.1110    1.5331   -4.7503 C   0  0  0  0  0  0
    5.5022    1.6167   -4.1797 C   0  0  0  0  0  0
    6.4261    2.1595   -4.7806 O   0  0  0  0  0  0
    5.7720    0.9772   -2.8694 C   0  0  0  0  0  0
    6.8331    0.0579   -2.8361 C   0  0  0  0  0  0
    7.1259   -0.6337   -1.6628 C   0  0  0  0  0  0
    6.3632   -0.4091   -0.5213 C   0  0  0  0  0  0
    5.3217    0.5229   -0.5479 C   0  0  0  0  0  0
    5.0157    1.2518   -1.7143 C   0  0  0  0  0  0
    3.9624    2.2610   -1.6554 C   0  0  0  0  0  0
    2.7058    1.8448   -1.3532 N   0  0  0  0  0  0
    1.7318    2.7729   -1.2854 C   0  0  0  0  0  0
    1.8369    4.0984   -1.4773 N   0  0  0  0  0  0
    3.0979    4.4581   -1.7584 C   0  0  0  0  0  0
    3.5064    5.7424   -1.9931 N   0  0  0  0  0  0
    2.8884    6.5410   -1.9786 H   0  0  0  0  0  0
    4.8547    5.7599   -2.2430 C   0  0  0  0  0  0
    5.3143    4.4613   -2.1675 C   0  0  0  0  0  0
    4.2022    3.6254   -1.8634 C   0  0  0  0  0  0
    3.4953    0.8134   -4.2045 H   0  0  0  0  0  0
    4.1770    1.1897   -5.7869 H   0  0  0  0  0  0
    3.6395    2.5181   -4.7204 H   0  0  0  0  0  0
    7.4262   -0.1243   -3.7306 H   0  0  0  0  0  0
    7.9438   -1.3497   -1.6418 H   0  0  0  0  0  0
    6.5819   -0.9511    0.3958 H   0  0  0  0  0  0
    4.7457    0.6943    0.3614 H   0  0  0  0  0  0
    0.7389    2.4033   -1.0462 H   0  0  0  0  0  0
    5.3683    6.6884   -2.4558 H   0  0  0  0  0  0
    6.3398    4.1487   -2.3249 H   0  0  0  0  0  0
  1  2  1  0  0  0
  1 20  1  0  0  0
  1 21  1  0  0  0
  1 22  1  0  0  0
  2  4  1  0  0  0
  2  3  2  0  0  0
  4  5  2  0  0  0
  4  9  1  0  0  0
  5  6  1  0  0  0
  5 23  1  0  0  0
  6  7  2  0  0  0
  6 24  1  0  0  0
  7  8  1  0  0  0
  7 25  1  0  0  0
  8  9  2  0  0  0
  8 26  1  0  0  0
  9 10  1  0  0  0
 10 11  2  0  0  0
 10 19  1  0  0  0
 11 12  1  0  0  0
 12 13  2  0  0  0
 12 27  1  0  0  0
 13 14  1  0  0  0
 14 15  1  0  0  0
 14 19  2  0  0  0
 15 17  1  0  0  0
 15 16  1  0  0  0
 17 18  2  0  0  0
 17 28  1  0  0  0
 18 19  1  0  0  0
 18 29  1  0  0  0
M  END
> <s_m_entry_id>
711

> <s_m_job_name>
mmod_csearch_9

> <r_mmod_Potential_Energy-MMFF94s>
195.869614

> <b_mmod_Minimization_Converged-MMFF94s>
1

> <r_mmod_RMS_Derivative-MMFF94s>
0.009654

> <i_mmod_Times_Found-MMFF94s>
460

> <r_mmod_Relative_Potential_Energy-MMFF94s>
0

> <i_mmod_Conformation-MMFF94s>
1

> <s_lp_label>
 _5

> <i_mmod_Serial_Number-MMFF94s>
5

$$$$
