CHEMBL1971519.smi
                    3D
 Structure written by MMmdl.
 27 29  0  0  1  0            999 V2000
    1.1823   -0.0055    1.2530 N   0  0  0  0  0  0
    2.4778   -0.0054    0.9251 C   0  0  0  0  0  0
    3.2596    1.0466    1.1517 N   0  0  0  0  0  0
    4.4569    0.6598    0.6926 N   0  0  0  0  0  0
    5.2280    1.3131    0.7610 H   0  0  0  0  0  0
    4.4827   -0.6066    0.1750 C   0  0  0  0  0  0
    5.5262   -1.3482   -0.3883 C   0  0  0  0  0  0
    5.2259   -2.6368   -0.8323 C   0  0  0  0  0  0
    3.9360   -3.1532   -0.7142 C   0  0  0  0  0  0
    2.8912   -2.3975   -0.1448 C   0  0  0  0  0  0
    1.5435   -2.9487   -0.0261 C   0  0  0  0  0  0
    0.6074   -2.7787   -1.0600 C   0  0  0  0  0  0
   -0.6817   -3.3030   -0.9450 C   0  0  0  0  0  0
   -1.0371   -4.0007    0.2026 C   0  0  0  0  0  0
   -2.2740   -4.5022    0.3134 F   0  0  0  0  0  0
   -0.1292   -4.1837    1.2382 C   0  0  0  0  0  0
    1.1600   -3.6596    1.1235 C   0  0  0  0  0  0
    3.1804   -1.0862    0.3111 C   0  0  0  0  0  0
    0.5600   -0.7866    1.0952 H   0  0  0  0  0  0
    0.7789    0.8149    1.6861 H   0  0  0  0  0  0
    6.5297   -0.9453   -0.4798 H   0  0  0  0  0  0
    6.0091   -3.2473   -1.2769 H   0  0  0  0  0  0
    3.7357   -4.1624   -1.0707 H   0  0  0  0  0  0
    0.8827   -2.2299   -1.9589 H   0  0  0  0  0  0
   -1.4067   -3.1714   -1.7418 H   0  0  0  0  0  0
   -0.4279   -4.7317    2.1260 H   0  0  0  0  0  0
    1.8688   -3.8018    1.9375 H   0  0  0  0  0  0
  1  2  1  0  0  0
  1 19  1  0  0  0
  1 20  1  0  0  0
  2 18  1  0  0  0
  2  3  2  0  0  0
  3  4  1  0  0  0
  4  6  1  0  0  0
  4  5  1  0  0  0
  6 18  1  0  0  0
  6  7  2  0  0  0
  7  8  1  0  0  0
  7 21  1  0  0  0
  8  9  2  0  0  0
  8 22  1  0  0  0
  9 10  1  0  0  0
  9 23  1  0  0  0
 10 18  2  0  0  0
 10 11  1  0  0  0
 11 12  2  0  0  0
 11 17  1  0  0  0
 12 13  1  0  0  0
 12 24  1  0  0  0
 13 14  2  0  0  0
 13 25  1  0  0  0
 14 16  1  0  0  0
 14 15  1  0  0  0
 16 17  2  0  0  0
 16 26  1  0  0  0
 17 27  1  0  0  0
M  END
> <s_m_entry_id>
779

> <s_m_job_name>
mmod_csearch_9

> <r_mmod_Potential_Energy-MMFF94s>
12.302351

> <b_mmod_Minimization_Converged-MMFF94s>
1

> <r_mmod_RMS_Derivative-MMFF94s>
0.001924

> <i_mmod_Times_Found-MMFF94s>
2000

> <r_mmod_Relative_Potential_Energy-MMFF94s>
0

> <i_mmod_Conformation-MMFF94s>
1

> <s_lp_label>
 _24

> <i_mmod_Serial_Number-MMFF94s>
24

$$$$
