CHEMBL1995916.smi
                    3D
 Structure written by MMmdl.
 26 27  0  0  1  0            999 V2000
    0.9292    0.1082    0.6885 C   0  0  0  0  0  0
    2.3087   -0.2572    0.8339 N   0  0  0  0  0  0
    3.3282    0.6682    0.8295 C   0  0  0  0  0  0
    3.1546    1.8750    0.6903 O   0  0  0  0  0  0
    4.6581    0.0659    1.0153 C   0  0  0  0  0  0
    5.9030    0.7437    1.0509 C   0  0  0  0  0  0
    6.8670   -0.2274    1.2370 C   0  0  0  0  0  0
    6.1600   -1.3991    1.3208 N   0  0  0  0  0  0
    6.5297   -2.3284    1.4866 H   0  0  0  0  0  0
    4.8295   -1.2620    1.1812 N   0  0  0  0  0  0
    8.3203   -0.1405    1.3647 C   0  0  0  0  0  0
    9.1536   -1.1821    0.9314 C   0  0  0  0  0  0
   10.5422   -1.0864    1.0625 C   0  0  0  0  0  0
   11.1143    0.0514    1.6263 C   0  0  0  0  0  0
   10.2997    1.0960    2.0555 C   0  0  0  0  0  0
    8.9118    1.0012    1.9233 C   0  0  0  0  0  0
    0.3551   -0.7852    0.4327 H   0  0  0  0  0  0
    0.8202    0.8609   -0.0969 H   0  0  0  0  0  0
    0.5731    0.5188    1.6369 H   0  0  0  0  0  0
    2.5915   -1.2226    0.9816 H   0  0  0  0  0  0
    6.0576    1.8086    0.9406 H   0  0  0  0  0  0
    8.7416   -2.0731    0.4650 H   0  0  0  0  0  0
   11.1778   -1.8981    0.7173 H   0  0  0  0  0  0
   12.1940    0.1265    1.7266 H   0  0  0  0  0  0
   10.7425    1.9868    2.4940 H   0  0  0  0  0  0
    8.2969    1.8278    2.2724 H   0  0  0  0  0  0
  1  2  1  0  0  0
  1 17  1  0  0  0
  1 18  1  0  0  0
  1 19  1  0  0  0
  2  3  1  0  0  0
  2 20  1  0  0  0
  3  5  1  0  0  0
  3  4  2  0  0  0
  5  6  1  0  0  0
  5 10  2  0  0  0
  6  7  2  0  0  0
  6 21  1  0  0  0
  7  8  1  0  0  0
  7 11  1  0  0  0
  8 10  1  0  0  0
  8  9  1  0  0  0
 11 12  2  0  0  0
 11 16  1  0  0  0
 12 13  1  0  0  0
 12 22  1  0  0  0
 13 14  2  0  0  0
 13 23  1  0  0  0
 14 15  1  0  0  0
 14 24  1  0  0  0
 15 16  2  0  0  0
 15 25  1  0  0  0
 16 26  1  0  0  0
M  END
> <s_m_entry_id>
10004

> <s_m_job_name>
mmod_csearch_11

> <r_mmod_Potential_Energy-MMFF94s>
128.819183

> <b_mmod_Minimization_Converged-MMFF94s>
1

> <r_mmod_RMS_Derivative-MMFF94s>
0.004188

> <i_mmod_Times_Found-MMFF94s>
377

> <r_mmod_Relative_Potential_Energy-MMFF94s>
0

> <i_mmod_Conformation-MMFF94s>
1

> <s_lp_label>
 _73

> <i_mmod_Serial_Number-MMFF94s>
73

$$$$
