CHEMBL1994526.smi
                    3D
 Structure written by MMmdl.
 39 40  0  0  1  0            999 V2000
    1.8333   -1.5765    0.5094 C   0  0  0  0  0  0
    2.7523   -0.8672   -0.4875 C   0  0  1  0  0  0
    3.5671   -1.8722   -1.1740 N   0  0  0  0  0  0
    1.9641    0.0368   -1.4733 C   0  0  1  0  0  0
    2.9088    0.9092   -2.3223 C   0  0  0  0  0  0
    2.1328    1.8427   -3.2490 C   0  0  0  0  0  0
    1.1815    1.0634   -4.1644 C   0  0  1  0  0  0
    0.2349    0.1887   -3.3338 C   0  0  0  0  0  0
    0.9971   -0.7391   -2.3873 C   0  0  0  0  0  0
    0.3778    2.0067   -5.0652 C   0  0  0  0  0  0
    0.3055    3.2103   -4.8422 O   0  0  0  0  0  0
   -0.2292    1.3353   -6.1161 N   0  0  0  0  0  0
   -1.0508    1.8834   -7.1245 C   0  0  0  0  0  0
   -1.3878    3.2303   -7.2095 C   0  0  0  0  0  0
   -2.2053    3.6426   -8.2507 C   0  0  0  0  0  0
   -2.7002    2.8152   -9.1953 N   0  0  0  0  0  0
   -2.3612    1.5154   -9.0927 C   0  0  0  0  0  0
   -1.5507    1.0075   -8.0896 C   0  0  0  0  0  0
    1.1851   -0.8564    1.0200 H   0  0  0  0  0  0
    2.4202   -2.0929    1.2778 H   0  0  0  0  0  0
    1.1966   -2.3245    0.0255 H   0  0  0  0  0  0
    3.4288   -0.2270    0.0932 H   0  0  0  0  0  0
    4.3028   -1.4128   -1.7086 H   0  0  0  0  0  0
    4.0457   -2.4526   -0.4853 H   0  0  0  0  0  0
    1.3574    0.7218   -0.8629 H   0  0  0  0  0  0
    3.5702    0.2817   -2.9315 H   0  0  0  0  0  0
    3.5513    1.5087   -1.6665 H   0  0  0  0  0  0
    1.5716    2.5665   -2.6437 H   0  0  0  0  0  0
    2.8385    2.4251   -3.8540 H   0  0  0  0  0  0
    1.7855    0.4176   -4.8168 H   0  0  0  0  0  0
   -0.4442    0.8258   -2.7520 H   0  0  0  0  0  0
   -0.4020   -0.4181   -3.9884 H   0  0  0  0  0  0
    0.2669   -1.2935   -1.7880 H   0  0  0  0  0  0
    1.5476   -1.4771   -2.9836 H   0  0  0  0  0  0
   -0.0631    0.3382   -6.1722 H   0  0  0  0  0  0
   -1.0410    3.9704   -6.4998 H   0  0  0  0  0  0
   -2.4912    4.6859   -8.3520 H   0  0  0  0  0  0
   -2.7711    0.8686   -9.8632 H   0  0  0  0  0  0
   -1.3242   -0.0521   -8.0764 H   0  0  0  0  0  0
  1  2  1  0  0  0
  1 19  1  0  0  0
  1 20  1  0  0  0
  1 21  1  0  0  0
  2  4  1  0  0  0
  2  3  1  0  0  0
  2 22  1  0  0  0
  3 23  1  0  0  0
  3 24  1  0  0  0
  4  9  1  0  0  0
  4  5  1  0  0  0
  4 25  1  0  0  0
  5  6  1  0  0  0
  5 26  1  0  0  0
  5 27  1  0  0  0
  6  7  1  0  0  0
  6 28  1  0  0  0
  6 29  1  0  0  0
  7  8  1  0  0  0
  7 10  1  0  0  0
  7 30  1  0  0  0
  8  9  1  0  0  0
  8 31  1  0  0  0
  8 32  1  0  0  0
  9 33  1  0  0  0
  9 34  1  0  0  0
 10 12  1  0  0  0
 10 11  2  0  0  0
 12 13  1  0  0  0
 12 35  1  0  0  0
 13 14  2  0  0  0
 13 18  1  0  0  0
 14 15  1  0  0  0
 14 36  1  0  0  0
 15 16  2  0  0  0
 15 37  1  0  0  0
 16 17  1  0  0  0
 17 18  2  0  0  0
 17 38  1  0  0  0
 18 39  1  0  0  0
M  END
> <s_m_entry_id>
181

> <s_m_entry_name>
CHEMBL1994526.1

> <s_m_job_name>
mmod_csearch_27

> <s_lp_label>
 _30

> <r_mmod_Potential_Energy-MMFF94s>
-1.708088

> <b_mmod_Minimization_Converged-MMFF94s>
1

> <r_mmod_RMS_Derivative-MMFF94s>
0.002393

> <i_mmod_Times_Found-MMFF94s>
319

> <r_mmod_Relative_Potential_Energy-MMFF94s>
0

> <i_mmod_Conformation-MMFF94s>
1

> <i_mmod_Serial_Number-MMFF94s>
30

$$$$
