CHEMBL262623.smi
                    3D
 Structure written by MMmdl.
 31 33  0  0  1  0            999 V2000
   13.6661   -2.3900  -10.2342 N   0  0  0  0  0  0
   13.4159   -2.0528   -8.9101 C   0  0  0  0  0  0
   14.4980   -1.9808   -8.1204 N   0  0  0  0  0  0
   14.2601   -1.6171   -6.8601 C   0  0  0  0  0  0
   13.0671   -1.3187   -6.3318 N   0  0  0  0  0  0
   11.9948   -1.3912   -7.1488 C   0  0  0  0  0  0
   10.8401   -1.0448   -6.4991 N   0  0  0  0  0  0
    9.5233   -1.0198   -7.0694 C   0  0  0  0  0  0
    9.5200   -0.2961   -8.4027 C   0  0  0  0  0  0
    9.9494   -1.2812   -9.4630 C   0  0  0  0  0  0
   11.0710   -1.9311   -9.4588 N   0  0  0  0  0  0
   12.1036   -1.7590   -8.4945 C   0  0  0  0  0  0
    9.0030   -1.5447  -10.5871 C   0  0  0  0  0  0
    8.2637   -0.5102  -11.1708 C   0  0  0  0  0  0
    7.3890   -0.7883  -12.2236 C   0  0  0  0  0  0
    7.2573   -2.0935  -12.6983 C   0  0  0  0  0  0
    8.0046   -3.1238  -12.1284 C   0  0  0  0  0  0
    8.8807   -2.8505  -11.0769 C   0  0  0  0  0  0
   14.6154   -2.6343  -10.4647 H   0  0  0  0  0  0
   12.8774   -2.7460  -10.7581 H   0  0  0  0  0  0
   15.1166   -1.5546   -6.1980 H   0  0  0  0  0  0
   10.9756   -0.8288   -5.5196 H   0  0  0  0  0  0
    9.1340   -2.0413   -7.1592 H   0  0  0  0  0  0
    8.8639   -0.4894   -6.3731 H   0  0  0  0  0  0
   10.1849    0.5745   -8.4181 H   0  0  0  0  0  0
    8.5022    0.0564   -8.5945 H   0  0  0  0  0  0
    8.3735    0.5176  -10.8366 H   0  0  0  0  0  0
    6.8162    0.0147  -12.6814 H   0  0  0  0  0  0
    6.5783   -2.3068  -13.5205 H   0  0  0  0  0  0
    7.9090   -4.1391  -12.5052 H   0  0  0  0  0  0
    9.4642   -3.6580  -10.6401 H   0  0  0  0  0  0
  1  2  1  0  0  0
  1 19  1  0  0  0
  1 20  1  0  0  0
  2  3  2  0  0  0
  2 12  1  0  0  0
  3  4  1  0  0  0
  4  5  2  0  0  0
  4 21  1  0  0  0
  5  6  1  0  0  0
  6  7  1  0  0  0
  6 12  2  0  0  0
  7  8  1  0  0  0
  7 22  1  0  0  0
  8  9  1  0  0  0
  8 23  1  0  0  0
  8 24  1  0  0  0
  9 10  1  0  0  0
  9 25  1  0  0  0
  9 26  1  0  0  0
 10 13  1  0  0  0
 10 11  2  0  0  0
 11 12  1  0  0  0
 13 14  2  0  0  0
 13 18  1  0  0  0
 14 15  1  0  0  0
 14 27  1  0  0  0
 15 16  2  0  0  0
 15 28  1  0  0  0
 16 17  1  0  0  0
 16 29  1  0  0  0
 17 18  2  0  0  0
 17 30  1  0  0  0
 18 31  1  0  0  0
M  END
> <s_m_entry_id>
744

> <s_m_job_name>
mmod_csearch_9

> <r_mmod_Potential_Energy-MMFF94s>
122.834778

> <b_mmod_Minimization_Converged-MMFF94s>
1

> <r_mmod_RMS_Derivative-MMFF94s>
0.009071

> <i_mmod_Times_Found-MMFF94s>
1098

> <r_mmod_Relative_Potential_Energy-MMFF94s>
0

> <i_mmod_Conformation-MMFF94s>
1

> <s_lp_label>
 _11

> <i_mmod_Serial_Number-MMFF94s>
11

$$$$
