CHEMBL1981133.smi
                    3D
 Structure written by MMmdl.
 52 56  0  0  1  0            999 V2000
    1.5545    2.4691   -1.2190 N   0  0  0  0  0  0
    1.4784    1.1247   -0.6055 C   0  0  1  0  0  0
    1.1231    0.0805   -1.6913 C   0  0  0  0  0  0
   -0.2438    0.2202   -2.1110 O   0  0  0  0  0  0
   -1.2096   -0.3834   -1.3571 C   0  0  0  0  0  0
   -2.5218   -0.1885   -1.7698 C   0  0  0  0  0  0
   -3.6086   -0.6892   -1.1356 N   0  0  0  0  0  0
   -3.3694   -1.4300   -0.0283 C   0  0  0  0  0  0
   -2.1013   -1.6996    0.4851 C   0  0  0  0  0  0
   -1.0121   -1.1574   -0.2155 C   0  0  0  0  0  0
   -1.8989   -2.4992    1.7014 C   0  0  0  0  0  0
   -2.5495   -2.1712    2.9004 C   0  0  0  0  0  0
   -2.3314   -2.9147    4.0641 C   0  0  0  0  0  0
   -1.4551   -4.0115    4.0528 C   0  0  0  0  0  0
   -1.1918   -4.7879    5.1841 C   0  0  0  0  0  0
   -0.3514   -5.8483    5.2072 N   0  0  0  0  0  0
    0.2496   -6.1672    4.0429 C   0  0  0  0  0  0
    0.0625   -5.4680    2.8615 C   0  0  0  0  0  0
   -0.7992   -4.3650    2.8599 C   0  0  0  0  0  0
   -1.0263   -3.6029    1.7005 C   0  0  0  0  0  0
    2.8078    0.7917    0.0996 C   0  0  0  0  0  0
    2.7087   -0.4097    0.9960 C   0  0  0  0  0  0
    2.0605   -0.4655    2.2162 C   0  0  0  0  0  0
    2.1852   -1.7335    2.7166 N   0  0  0  0  0  0
    1.7975   -2.0587    3.5924 H   0  0  0  0  0  0
    2.9195   -2.5122    1.8537 C   0  0  0  0  0  0
    3.3088   -3.8524    1.9625 C   0  0  0  0  0  0
    4.0570   -4.3977    0.9161 C   0  0  0  0  0  0
    4.4049   -3.6289   -0.1914 C   0  0  0  0  0  0
    4.0155   -2.2872   -0.2797 C   0  0  0  0  0  0
    3.2588   -1.7120    0.7622 C   0  0  0  0  0  0
    0.6791    2.6414   -1.7182 H   0  0  0  0  0  0
    1.6023    3.1727   -0.4826 H   0  0  0  0  0  0
    0.6729    1.1703    0.1368 H   0  0  0  0  0  0
    1.3386   -0.9522   -1.4003 H   0  0  0  0  0  0
    1.7410    0.2562   -2.5814 H   0  0  0  0  0  0
   -2.7400    0.4033   -2.6547 H   0  0  0  0  0  0
   -4.2640   -1.8233    0.4488 H   0  0  0  0  0  0
   -0.0167   -1.3473    0.1705 H   0  0  0  0  0  0
   -3.2233   -1.3169    2.9441 H   0  0  0  0  0  0
   -2.8482   -2.6304    4.9784 H   0  0  0  0  0  0
   -1.6655   -4.5709    6.1382 H   0  0  0  0  0  0
    0.9097   -7.0292    4.0833 H   0  0  0  0  0  0
    0.5821   -5.7808    1.9614 H   0  0  0  0  0  0
   -0.5154   -3.8764    0.7770 H   0  0  0  0  0  0
    3.1175    1.6429    0.7216 H   0  0  0  0  0  0
    3.6041    0.6511   -0.6418 H   0  0  0  0  0  0
    1.5171    0.2893    2.7694 H   0  0  0  0  0  0
    3.0491   -4.4484    2.8312 H   0  0  0  0  0  0
    4.3788   -5.4352    0.9717 H   0  0  0  0  0  0
    4.9922   -4.0703   -0.9930 H   0  0  0  0  0  0
    4.3031   -1.6975   -1.1452 H   0  0  0  0  0  0
  1  2  1  0  0  0
  1 32  1  0  0  0
  1 33  1  0  0  0
  2 21  1  0  0  0
  2  3  1  0  0  0
  2 34  1  0  0  0
  3  4  1  0  0  0
  3 35  1  0  0  0
  3 36  1  0  0  0
  4  5  1  0  0  0
  5 10  1  0  0  0
  5  6  2  0  0  0
  6  7  1  0  0  0
  6 37  1  0  0  0
  7  8  2  0  0  0
  8  9  1  0  0  0
  8 38  1  0  0  0
  9 10  2  0  0  0
  9 11  1  0  0  0
 10 39  1  0  0  0
 11 12  2  0  0  0
 11 20  1  0  0  0
 12 13  1  0  0  0
 12 40  1  0  0  0
 13 14  2  0  0  0
 13 41  1  0  0  0
 14 19  1  0  0  0
 14 15  1  0  0  0
 15 16  2  0  0  0
 15 42  1  0  0  0
 16 17  1  0  0  0
 17 18  2  0  0  0
 17 43  1  0  0  0
 18 19  1  0  0  0
 18 44  1  0  0  0
 19 20  2  0  0  0
 20 45  1  0  0  0
 21 22  1  0  0  0
 21 46  1  0  0  0
 21 47  1  0  0  0
 22 31  1  0  0  0
 22 23  2  0  0  0
 23 24  1  0  0  0
 23 48  1  0  0  0
 24 26  1  0  0  0
 24 25  1  0  0  0
 26 31  1  0  0  0
 26 27  2  0  0  0
 27 28  1  0  0  0
 27 49  1  0  0  0
 28 29  2  0  0  0
 28 50  1  0  0  0
 29 30  1  0  0  0
 29 51  1  0  0  0
 30 31  2  0  0  0
 30 52  1  0  0  0
M  END
> <s_m_entry_id>
10170

> <s_m_job_name>
mmod_csearch_13

> <r_mmod_Potential_Energy-MMFF94s>
492.203094

> <b_mmod_Minimization_Converged-MMFF94s>
1

> <r_mmod_RMS_Derivative-MMFF94s>
0.009091

> <i_mmod_Times_Found-MMFF94s>
43

> <r_mmod_Relative_Potential_Energy-MMFF94s>
0

> <i_mmod_Conformation-MMFF94s>
1

> <s_lp_label>
 _39

> <i_mmod_Serial_Number-MMFF94s>
39

$$$$
