CHEMBL1983575.smi
                    3D
 Structure written by MMmdl.
 32 33  0  0  1  0            999 V2000
    0.7760    1.6183    2.0811 O   0  0  0  0  0  0
    2.0664    1.4084    1.6732 C   0  0  0  0  0  0
    2.4164    1.6591    0.3431 C   0  0  0  0  0  0
    1.1431    2.2853   -0.9161 Br  0  0  0  0  0  0
    3.7280    1.4510   -0.0922 C   0  0  0  0  0  0
    4.6899    0.9901    0.8108 C   0  0  0  0  0  0
    6.0695    0.7772    0.3294 C   0  0  0  0  0  0
    7.0071    0.3516    1.1159 N   0  0  0  0  0  0
    8.2282    0.2074    0.5141 N   0  0  0  0  0  0
    9.3450   -0.2374    1.2051 C   0  0  0  0  0  0
   10.4191   -0.3517    0.6257 O   0  0  0  0  0  0
    9.0652   -0.5017    2.5223 N   0  0  0  0  0  0
    9.9174   -0.9632    3.5343 C   0  0  0  0  0  0
   11.2709   -1.2420    3.3391 C   0  0  0  0  0  0
   12.0585   -1.7003    4.4000 C   0  0  0  0  0  0
   11.4984   -1.8827    5.6625 C   0  0  0  0  0  0
   10.1488   -1.6071    5.8663 C   0  0  0  0  0  0
    9.3622   -1.1493    4.8061 C   0  0  0  0  0  0
    4.3490    0.7368    2.1430 C   0  0  0  0  0  0
    3.0371    0.9474    2.5685 C   0  0  0  0  0  0
    2.5979    0.5971    4.3795 Br  0  0  0  0  0  0
    0.7147    1.3944    3.0276 H   0  0  0  0  0  0
    3.9923    1.6482   -1.1283 H   0  0  0  0  0  0
    6.2627    0.9991   -0.7365 H   0  0  0  0  0  0
    8.3662    0.4214   -0.4673 H   0  0  0  0  0  0
    8.0917   -0.3194    2.7350 H   0  0  0  0  0  0
   11.7428   -1.1121    2.3701 H   0  0  0  0  0  0
   13.1114   -1.9138    4.2349 H   0  0  0  0  0  0
   12.1134   -2.2390    6.4845 H   0  0  0  0  0  0
    9.7074   -1.7479    6.8492 H   0  0  0  0  0  0
    8.3113   -0.9402    4.9868 H   0  0  0  0  0  0
    5.1012    0.3783    2.8416 H   0  0  0  0  0  0
  1  2  1  0  0  0
  1 22  1  0  0  0
  2 20  1  0  0  0
  2  3  2  0  0  0
  3  5  1  0  0  0
  3  4  1  0  0  0
  5  6  2  0  0  0
  5 23  1  0  0  0
  6 19  1  0  0  0
  6  7  1  0  0  0
  7  8  2  0  0  0
  7 24  1  0  0  0
  8  9  1  0  0  0
  9 10  1  0  0  0
  9 25  1  0  0  0
 10 12  1  0  0  0
 10 11  2  0  0  0
 12 13  1  0  0  0
 12 26  1  0  0  0
 13 14  2  0  0  0
 13 18  1  0  0  0
 14 15  1  0  0  0
 14 27  1  0  0  0
 15 16  2  0  0  0
 15 28  1  0  0  0
 16 17  1  0  0  0
 16 29  1  0  0  0
 17 18  2  0  0  0
 17 30  1  0  0  0
 18 31  1  0  0  0
 19 20  2  0  0  0
 19 32  1  0  0  0
 20 21  1  0  0  0
M  END
> <s_m_entry_id>
10026

> <s_m_job_name>
mmod_csearch_11

> <r_mmod_Potential_Energy-MMFF94s>
102.557816

> <b_mmod_Minimization_Converged-MMFF94s>
1

> <r_mmod_RMS_Derivative-MMFF94s>
0.003577

> <i_mmod_Times_Found-MMFF94s>
752

> <r_mmod_Relative_Potential_Energy-MMFF94s>
0

> <i_mmod_Conformation-MMFF94s>
1

> <s_lp_label>
 _95

> <i_mmod_Serial_Number-MMFF94s>
95

$$$$
