CHEMBL1970340.smi
                    3D
 Structure written by MMmdl.
 27 29  0  0  1  0            999 V2000
    1.0827    0.2061    0.4235 N   0  0  0  0  0  0
    2.4211    0.1168    0.3674 C   0  0  0  0  0  0
    3.2331    0.6642    1.2755 N   0  0  0  0  0  0
    4.5185    0.3691    0.8630 O   0  0  0  0  0  0
    4.4723   -0.3554   -0.2846 C   0  0  0  0  0  0
    5.5776   -0.8264   -0.9897 C   0  0  0  0  0  0
    5.3097   -1.5541   -2.1507 C   0  0  0  0  0  0
    3.9953   -1.7895   -2.5629 C   0  0  0  0  0  0
    2.8922   -1.3042   -1.8280 C   0  0  0  0  0  0
    1.5208   -1.5638   -2.2572 C   0  0  0  0  0  0
    0.9096   -0.7534   -3.2271 C   0  0  0  0  0  0
   -0.4072   -0.9909   -3.6277 C   0  0  0  0  0  0
   -1.1264   -2.0426   -3.0643 C   0  0  0  0  0  0
   -0.5256   -2.8512   -2.1075 C   0  0  0  0  0  0
   -1.2663   -3.8673   -1.5804 O   0  0  0  0  0  0
    0.7870   -2.6242   -1.7014 C   0  0  0  0  0  0
    3.1518   -0.5588   -0.6530 C   0  0  0  0  0  0
    0.4614   -0.1798   -0.2775 H   0  0  0  0  0  0
    0.6391    0.7124    1.1802 H   0  0  0  0  0  0
    6.5885   -0.6332   -0.6507 H   0  0  0  0  0  0
    6.1361   -1.9446   -2.7414 H   0  0  0  0  0  0
    3.8222   -2.3648   -3.4720 H   0  0  0  0  0  0
    1.4587    0.0747   -3.6719 H   0  0  0  0  0  0
   -0.8712   -0.3562   -4.3783 H   0  0  0  0  0  0
   -2.1510   -2.2330   -3.3715 H   0  0  0  0  0  0
   -0.7198   -4.3550   -0.9421 H   0  0  0  0  0  0
    1.2502   -3.2582   -0.9500 H   0  0  0  0  0  0
  1  2  1  0  0  0
  1 18  1  0  0  0
  1 19  1  0  0  0
  2 17  1  0  0  0
  2  3  2  0  0  0
  3  4  1  0  0  0
  4  5  1  0  0  0
  5 17  1  0  0  0
  5  6  2  0  0  0
  6  7  1  0  0  0
  6 20  1  0  0  0
  7  8  2  0  0  0
  7 21  1  0  0  0
  8  9  1  0  0  0
  8 22  1  0  0  0
  9 17  2  0  0  0
  9 10  1  0  0  0
 10 11  2  0  0  0
 10 16  1  0  0  0
 11 12  1  0  0  0
 11 23  1  0  0  0
 12 13  2  0  0  0
 12 24  1  0  0  0
 13 14  1  0  0  0
 13 25  1  0  0  0
 14 16  2  0  0  0
 14 15  1  0  0  0
 15 26  1  0  0  0
 16 27  1  0  0  0
M  END
> <s_m_entry_id>
143

> <s_m_entry_name>
CHEMBL1970340.1

> <s_m_job_name>
mmod_csearch_25

> <s_lp_label>
 _7

> <r_mmod_Potential_Energy-MMFF94s>
31.905327

> <b_mmod_Minimization_Converged-MMFF94s>
1

> <r_mmod_RMS_Derivative-MMFF94s>
0.005149

> <i_mmod_Times_Found-MMFF94s>
729

> <r_mmod_Relative_Potential_Energy-MMFF94s>
0

> <i_mmod_Conformation-MMFF94s>
1

> <i_mmod_Serial_Number-MMFF94s>
7

$$$$
