CHEMBL2001149.smi
                    3D
 Structure written by MMmdl.
 51 56  0  0  1  0            999 V2000
    1.9491    0.5898    4.6251 O   0  0  0  0  0  0
    2.9459   -0.2445    5.0467 C   0  0  0  0  0  0
    3.4435   -0.1652    6.3470 C   0  0  0  0  0  0
    4.4668   -1.0283    6.7631 C   0  0  0  0  0  0
    4.9729   -1.9652    5.8495 C   0  0  0  0  0  0
    5.9595   -2.9044    6.0084 N   0  0  0  0  0  0
    6.0575   -3.5411    4.8531 C   0  0  0  0  0  0
    5.1561   -3.0151    3.9532 N   0  0  0  0  0  0
    5.0429   -3.3056    2.9949 H   0  0  0  0  0  0
    4.4500   -2.0128    4.5650 C   0  0  0  0  0  0
    3.4328   -1.1673    4.1190 C   0  0  0  0  0  0
    6.9922   -4.6323    4.5534 C   0  0  0  0  0  0
    6.8840   -5.4277    3.4042 C   0  0  0  0  0  0
    7.7985   -6.4608    3.1608 C   0  0  0  0  0  0
    8.8318   -6.7232    4.0647 C   0  0  0  0  0  0
   10.0087   -8.0310    3.7733 S   0  0  0  0  0  0
    8.9417   -9.4559    3.6662 C   0  0  0  0  0  0
    8.9548  -10.2402    2.5121 C   0  0  0  0  0  0
    8.1241  -11.3615    2.4127 C   0  0  0  0  0  0
    7.2731  -11.7297    3.4655 C   0  0  0  0  0  0
    7.2716  -10.9400    4.6237 C   0  0  0  0  0  0
    8.1018   -9.8160    4.7239 C   0  0  0  0  0  0
    6.4199  -12.9141    3.3125 C   0  0  0  0  0  0
    6.2017  -13.5674    2.1832 N   0  0  0  0  0  0
    5.3564  -14.6021    2.4925 C   0  0  0  0  0  0
    4.8081  -15.5940    1.6655 C   0  0  0  0  0  0
    3.9610  -16.5547    2.2352 C   0  0  0  0  0  0
    3.6760  -16.5163    3.5997 C   0  0  0  0  0  0
    2.8529  -17.4456    4.1707 O   0  0  0  0  0  0
    4.2092  -15.5403    4.4436 C   0  0  0  0  0  0
    5.0473  -14.5979    3.8453 C   0  0  0  0  0  0
    5.7361  -13.5228    4.3426 N   0  0  0  0  0  0
    5.7508  -13.2375    5.3089 H   0  0  0  0  0  0
    8.9513   -5.9320    5.2080 C   0  0  0  0  0  0
    8.0364   -4.9018    5.4507 C   0  0  0  0  0  0
    1.7041    1.1757    5.3602 H   0  0  0  0  0  0
    3.0523    0.5594    7.0546 H   0  0  0  0  0  0
    4.8679   -0.9819    7.7693 H   0  0  0  0  0  0
    3.0359   -1.2158    3.1118 H   0  0  0  0  0  0
    6.0881   -5.2752    2.6815 H   0  0  0  0  0  0
    7.6914   -7.0606    2.2595 H   0  0  0  0  0  0
    9.6058   -9.9890    1.6780 H   0  0  0  0  0  0
    8.1452  -11.9572    1.5006 H   0  0  0  0  0  0
    6.6239  -11.1678    5.4648 H   0  0  0  0  0  0
    8.0813   -9.2228    5.6356 H   0  0  0  0  0  0
    5.0427  -15.6073    0.6070 H   0  0  0  0  0  0
    3.5369  -17.3219    1.5945 H   0  0  0  0  0  0
    2.5536  -18.0601    3.4804 H   0  0  0  0  0  0
    3.9786  -15.5245    5.5024 H   0  0  0  0  0  0
    9.7517   -6.1076    5.9229 H   0  0  0  0  0  0
    8.1440   -4.2994    6.3522 H   0  0  0  0  0  0
  1  2  1  0  0  0
  1 36  1  0  0  0
  2  3  2  0  0  0
  2 11  1  0  0  0
  3  4  1  0  0  0
  3 37  1  0  0  0
  4  5  2  0  0  0
  4 38  1  0  0  0
  5  6  1  0  0  0
  5 10  1  0  0  0
  6  7  2  0  0  0
  7  8  1  0  0  0
  7 12  1  0  0  0
  8 10  1  0  0  0
  8  9  1  0  0  0
 10 11  2  0  0  0
 11 39  1  0  0  0
 12 13  2  0  0  0
 12 35  1  0  0  0
 13 14  1  0  0  0
 13 40  1  0  0  0
 14 15  2  0  0  0
 14 41  1  0  0  0
 15 34  1  0  0  0
 15 16  1  0  0  0
 16 17  1  0  0  0
 17 18  2  0  0  0
 17 22  1  0  0  0
 18 19  1  0  0  0
 18 42  1  0  0  0
 19 20  2  0  0  0
 19 43  1  0  0  0
 20 21  1  0  0  0
 20 23  1  0  0  0
 21 22  2  0  0  0
 21 44  1  0  0  0
 22 45  1  0  0  0
 23 24  2  0  0  0
 23 32  1  0  0  0
 24 25  1  0  0  0
 25 26  2  0  0  0
 25 31  1  0  0  0
 26 27  1  0  0  0
 26 46  1  0  0  0
 27 28  2  0  0  0
 27 47  1  0  0  0
 28 30  1  0  0  0
 28 29  1  0  0  0
 29 48  1  0  0  0
 30 31  2  0  0  0
 30 49  1  0  0  0
 31 32  1  0  0  0
 32 33  1  0  0  0
 34 35  2  0  0  0
 34 50  1  0  0  0
 35 51  1  0  0  0
M  END
> <s_m_entry_id>
197

> <s_m_entry_name>
CHEMBL2001149.1

> <s_m_job_name>
mmod_csearch_27

> <s_lp_label>
 _46

> <r_mmod_Potential_Energy-MMFF94s>
130.756607

> <b_mmod_Minimization_Converged-MMFF94s>
1

> <r_mmod_RMS_Derivative-MMFF94s>
0.012821

> <i_mmod_Times_Found-MMFF94s>
263

> <r_mmod_Relative_Potential_Energy-MMFF94s>
0

> <i_mmod_Conformation-MMFF94s>
1

> <i_mmod_Serial_Number-MMFF94s>
46

$$$$
