CHEMBL1964718.smi
                    3D
 Structure written by MMmdl.
 21 22  0  0  1  0            999 V2000
    3.4285   -1.2862    4.7095 C   0  0  0  0  0  0
    4.3583   -1.0547    3.5601 C   0  0  0  0  0  0
    4.4818   -1.8992    2.5206 C   0  0  0  0  0  0
    5.3499   -1.6735    1.4573 N   0  0  0  0  0  0
    5.4467   -2.6220    0.3518 C   0  0  0  0  0  0
    6.4384   -2.2235   -0.7200 C   0  0  0  0  0  0
    6.6312   -2.9237   -1.7163 O   0  0  0  0  0  0
    7.1206   -1.0495   -0.5458 N   0  0  0  0  0  0
    6.9897   -0.2018    0.5077 N   0  0  0  0  0  0
    6.1400   -0.5262    1.4437 C   0  0  0  0  0  0
    6.0312    0.4405    2.5850 C   0  0  0  0  0  0
    5.1708    0.1536    3.5750 C   0  0  0  0  0  0
    2.7018   -0.4706    4.7873 H   0  0  0  0  0  0
    3.9863   -1.3454    5.6502 H   0  0  0  0  0  0
    2.8680   -2.2205    4.5967 H   0  0  0  0  0  0
    3.9041   -2.8165    2.4510 H   0  0  0  0  0  0
    5.7539   -3.6021    0.7350 H   0  0  0  0  0  0
    4.4673   -2.7259   -0.1296 H   0  0  0  0  0  0
    7.7855   -0.7805   -1.2626 H   0  0  0  0  0  0
    6.6483    1.3282    2.5659 H   0  0  0  0  0  0
    5.0681    0.8327    4.4159 H   0  0  0  0  0  0
  1  2  1  0  0  0
  1 13  1  0  0  0
  1 14  1  0  0  0
  1 15  1  0  0  0
  2 12  1  0  0  0
  2  3  2  0  0  0
  3  4  1  0  0  0
  3 16  1  0  0  0
  4 10  1  0  0  0
  4  5  1  0  0  0
  5  6  1  0  0  0
  5 17  1  0  0  0
  5 18  1  0  0  0
  6  8  1  0  0  0
  6  7  2  0  0  0
  8  9  1  0  0  0
  8 19  1  0  0  0
  9 10  2  0  0  0
 10 11  1  0  0  0
 11 12  2  0  0  0
 11 20  1  0  0  0
 12 21  1  0  0  0
M  END
> <s_m_entry_id>
134

> <s_m_entry_name>
CHEMBL1964718.1

> <s_m_job_name>
mmod_csearch_24

> <s_lp_label>
 _6

> <r_mmod_Potential_Energy-MMFF94s>
248.752716

> <b_mmod_Minimization_Converged-MMFF94s>
1

> <r_mmod_RMS_Derivative-MMFF94s>
0.008723

> <i_mmod_Times_Found-MMFF94s>
1500

> <r_mmod_Relative_Potential_Energy-MMFF94s>
0

> <i_mmod_Conformation-MMFF94s>
1

> <i_mmod_Serial_Number-MMFF94s>
6

$$$$
