CHEMBL1986943.smi
                    3D
 Structure written by MMmdl.
 42 45  0  0  1  0            999 V2000
    2.5835   -3.5407   -1.3827 O   0  0  0  0  0  0
    2.6788   -2.1210   -1.4789 C   0  0  1  0  0  0
    3.8885   -1.6621   -0.6683 C   0  0  0  0  0  0
    5.2102   -2.1255   -1.2889 C   0  0  0  0  0  0
    5.3430   -1.7554   -2.7744 C   0  0  1  0  0  0
    4.1076   -2.2010   -3.5691 C   0  0  0  0  0  0
    2.7966   -1.7151   -2.9464 C   0  0  0  0  0  0
    5.5475   -0.3261   -2.8967 N   0  0  0  0  0  0
    6.1198    0.2611   -3.9894 C   0  0  0  0  0  0
    6.1901    1.5898   -3.9617 N   0  0  0  0  0  0
    6.7468    2.1690   -5.0334 C   0  0  0  0  0  0
    6.8215    3.8831   -4.9491 Cl  0  0  0  0  0  0
    7.2289    1.5075   -6.1291 C   0  0  0  0  0  0
    7.1071    0.1429   -6.0675 C   0  0  0  0  0  0
    6.5639   -0.4854   -5.0059 N   0  0  0  0  0  0
    7.5591   -0.7236   -7.1524 C   0  0  0  0  0  0
    7.6852   -0.3166   -8.4734 C   0  0  0  0  0  0
    8.1147   -1.3883   -9.2156 N   0  0  0  0  0  0
    8.2928   -1.4022  -10.2092 H   0  0  0  0  0  0
    8.2664   -2.4801   -8.4109 C   0  0  0  0  0  0
    8.6763   -3.6859   -8.8455 N   0  0  0  0  0  0
    8.7442   -4.6047   -7.8553 C   0  0  0  0  0  0
    8.4382   -4.3809   -6.5199 C   0  0  0  0  0  0
    8.0198   -3.1091   -6.1275 C   0  0  0  0  0  0
    7.9258   -2.1101   -7.1141 C   0  0  0  0  0  0
    1.7802   -3.8121   -1.8599 H   0  0  0  0  0  0
    1.7658   -1.6996   -1.0442 H   0  0  0  0  0  0
    3.8261   -2.0627    0.3507 H   0  0  0  0  0  0
    3.8810   -0.5690   -0.5869 H   0  0  0  0  0  0
    6.0448   -1.7026   -0.7160 H   0  0  0  0  0  0
    5.2846   -3.2161   -1.1897 H   0  0  0  0  0  0
    6.2253   -2.2831   -3.1581 H   0  0  0  0  0  0
    4.1615   -1.8506   -4.6064 H   0  0  0  0  0  0
    4.0954   -3.2975   -3.6154 H   0  0  0  0  0  0
    2.7288   -0.6242   -3.0331 H   0  0  0  0  0  0
    1.9629   -2.1395   -3.5183 H   0  0  0  0  0  0
    5.2336    0.3236   -2.1925 H   0  0  0  0  0  0
    7.6748    2.0301   -6.9611 H   0  0  0  0  0  0
    7.4972    0.6305   -8.9610 H   0  0  0  0  0  0
    9.0720   -5.5900   -8.1792 H   0  0  0  0  0  0
    8.5235   -5.1819   -5.7939 H   0  0  0  0  0  0
    7.7742   -2.8976   -5.0922 H   0  0  0  0  0  0
  1  2  1  0  0  0
  1 26  1  0  0  0
  2  7  1  0  0  0
  2  3  1  0  0  0
  2 27  1  0  0  0
  3  4  1  0  0  0
  3 28  1  0  0  0
  3 29  1  0  0  0
  4  5  1  0  0  0
  4 30  1  0  0  0
  4 31  1  0  0  0
  5  6  1  0  0  0
  5  8  1  0  0  0
  5 32  1  0  0  0
  6  7  1  0  0  0
  6 33  1  0  0  0
  6 34  1  0  0  0
  7 35  1  0  0  0
  7 36  1  0  0  0
  8  9  1  0  0  0
  8 37  1  0  0  0
  9 15  1  0  0  0
  9 10  2  0  0  0
 10 11  1  0  0  0
 11 13  2  0  0  0
 11 12  1  0  0  0
 13 14  1  0  0  0
 13 38  1  0  0  0
 14 15  2  0  0  0
 14 16  1  0  0  0
 16 25  1  0  0  0
 16 17  2  0  0  0
 17 18  1  0  0  0
 17 39  1  0  0  0
 18 20  1  0  0  0
 18 19  1  0  0  0
 20 25  1  0  0  0
 20 21  2  0  0  0
 21 22  1  0  0  0
 22 23  2  0  0  0
 22 40  1  0  0  0
 23 24  1  0  0  0
 23 41  1  0  0  0
 24 25  2  0  0  0
 24 42  1  0  0  0
M  END
> <s_m_entry_id>
10239

> <s_m_job_name>
mmod_csearch_14

> <r_mmod_Potential_Energy-MMFF94s>
-389.073578

> <b_mmod_Minimization_Converged-MMFF94s>
1

> <r_mmod_RMS_Derivative-MMFF94s>
0.007081

> <i_mmod_Times_Found-MMFF94s>
27

> <r_mmod_Relative_Potential_Energy-MMFF94s>
0

> <i_mmod_Conformation-MMFF94s>
1

> <s_lp_label>
 _8

> <i_mmod_Serial_Number-MMFF94s>
8

$$$$
