CHEMBL1980995.smi
                    3D
 Structure written by MMmdl.
 61 68  0  0  1  0            999 V2000
   -0.2369    2.2169    7.6922 C   0  0  0  0  0  0
    0.4436    1.7314    6.5024 N   0  0  0  0  0  0
    0.8716    2.7886    5.5827 C   0  0  2  0  0  0
   -0.2732    3.4150    4.7902 C   0  0  0  0  0  0
   -0.8007    2.5376    3.6585 C   0  0  1  0  0  0
    0.1974    1.9400    2.8395 O   0  0  0  0  0  0
    1.3175    1.3088    3.5053 C   0  0  1  0  0  0
    2.3041    1.1841    2.3158 C   0  0  0  0  0  0
    1.9311    2.2773    4.5742 C   0  0  2  0  0  0
    3.0778    1.7146    5.2312 O   0  0  0  0  0  0
    3.8986    2.6595    5.9031 C   0  0  0  0  0  0
    0.9361   -0.0357    4.0005 N   0  0  0  0  0  0
    1.8191   -1.0998    4.2520 C   0  0  0  0  0  0
    3.2266   -1.1863    4.2794 C   0  0  0  0  0  0
    3.8406   -2.4206    4.5166 C   0  0  0  0  0  0
    3.0837   -3.5599    4.7334 C   0  0  0  0  0  0
    1.6915   -3.4804    4.7368 C   0  0  0  0  0  0
    1.0478   -2.2429    4.5052 C   0  0  0  0  0  0
   -0.3140   -1.8470    4.5105 C   0  0  0  0  0  0
   -1.5342   -2.4932    4.7531 C   0  0  0  0  0  0
   -1.8180   -3.9297    5.0686 C   0  0  0  0  0  0
   -3.2454   -3.9449    5.2320 N   0  0  0  0  0  0
   -3.8256   -2.7061    5.0617 C   0  0  0  0  0  0
   -5.0150   -2.4812    5.1556 O   0  0  0  0  0  0
   -2.7433   -1.7624    4.7552 C   0  0  0  0  0  0
   -2.8034   -0.3858    4.5224 C   0  0  0  0  0  0
   -3.7986    0.6385    4.4899 C   0  0  0  0  0  0
   -5.1966    0.6659    4.6876 C   0  0  0  0  0  0
   -5.8989    1.8715    4.5927 C   0  0  0  0  0  0
   -5.2311    3.0538    4.3047 C   0  0  0  0  0  0
   -3.8491    3.0619    4.1035 C   0  0  0  0  0  0
   -3.1486    1.8442    4.1994 C   0  0  0  0  0  0
   -1.7996    1.5557    4.0439 N   0  0  0  0  0  0
   -1.5800    0.2255    4.2507 C   0  0  0  0  0  0
   -0.3521   -0.4852    4.2369 C   0  0  0  0  0  0
    0.4008    2.8919    8.2718 H   0  0  0  0  0  0
   -1.1726    2.7272    7.4477 H   0  0  0  0  0  0
   -0.4931    1.3672    8.3329 H   0  0  0  0  0  0
    1.2537    1.1676    6.7775 H   0  0  0  0  0  0
    1.3367    3.5801    6.1833 H   0  0  0  0  0  0
   -1.0846    3.7485    5.4461 H   0  0  0  0  0  0
    0.1274    4.3300    4.3305 H   0  0  0  0  0  0
   -1.3298    3.2051    2.9669 H   0  0  0  0  0  0
    2.3526    2.1279    1.7571 H   0  0  0  0  0  0
    3.3268    0.9487    2.6109 H   0  0  0  0  0  0
    1.9653    0.4245    1.6005 H   0  0  0  0  0  0
    2.2789    3.1623    4.0194 H   0  0  0  0  0  0
    4.1845    3.4756    5.2331 H   0  0  0  0  0  0
    4.8075    2.1463    6.2294 H   0  0  0  0  0  0
    3.3968    3.0522    6.7908 H   0  0  0  0  0  0
    3.8612   -0.3195    4.1426 H   0  0  0  0  0  0
    4.9262   -2.4817    4.5351 H   0  0  0  0  0  0
    3.5727   -4.5128    4.9168 H   0  0  0  0  0  0
    1.1083   -4.3748    4.9319 H   0  0  0  0  0  0
   -1.5460   -4.5939    4.2445 H   0  0  0  0  0  0
   -1.3502   -4.2464    6.0043 H   0  0  0  0  0  0
   -3.8070   -4.7556    5.4523 H   0  0  0  0  0  0
   -5.7405   -0.2460    4.9158 H   0  0  0  0  0  0
   -6.9750    1.8755    4.7468 H   0  0  0  0  0  0
   -5.7908    3.9833    4.2337 H   0  0  0  0  0  0
   -3.3446    3.9957    3.8787 H   0  0  0  0  0  0
  1  2  1  0  0  0
  1 36  1  0  0  0
  1 37  1  0  0  0
  1 38  1  0  0  0
  2  3  1  0  0  0
  2 39  1  0  0  0
  3  9  1  0  0  0
  3  4  1  0  0  0
  3 40  1  0  0  0
  4  5  1  0  0  0
  4 41  1  0  0  0
  4 42  1  0  0  0
  5  6  1  0  0  0
  5 33  1  0  0  0
  5 43  1  0  0  0
  6  7  1  0  0  0
  7  9  1  0  0  0
  7 12  1  0  0  0
  7  8  1  0  0  0
  8 44  1  0  0  0
  8 45  1  0  0  0
  8 46  1  0  0  0
  9 10  1  0  0  0
  9 47  1  0  0  0
 10 11  1  0  0  0
 11 48  1  0  0  0
 11 49  1  0  0  0
 11 50  1  0  0  0
 12 13  1  0  0  0
 12 35  1  0  0  0
 13 18  1  0  0  0
 13 14  2  0  0  0
 14 15  1  0  0  0
 14 51  1  0  0  0
 15 16  2  0  0  0
 15 52  1  0  0  0
 16 17  1  0  0  0
 16 53  1  0  0  0
 17 18  2  0  0  0
 17 54  1  0  0  0
 18 19  1  0  0  0
 19 35  1  0  0  0
 19 20  2  0  0  0
 20 25  1  0  0  0
 20 21  1  0  0  0
 21 22  1  0  0  0
 21 55  1  0  0  0
 21 56  1  0  0  0
 22 23  1  0  0  0
 22 57  1  0  0  0
 23 25  1  0  0  0
 23 24  2  0  0  0
 25 26  2  0  0  0
 26 34  1  0  0  0
 26 27  1  0  0  0
 27 28  2  0  0  0
 27 32  1  0  0  0
 28 29  1  0  0  0
 28 58  1  0  0  0
 29 30  2  0  0  0
 29 59  1  0  0  0
 30 31  1  0  0  0
 30 60  1  0  0  0
 31 32  2  0  0  0
 31 61  1  0  0  0
 32 33  1  0  0  0
 33 34  1  0  0  0
 34 35  2  0  0  0
M  END
> <s_m_entry_id>
10831

> <s_m_job_name>
mmod_csearch_16

> <r_mmod_Potential_Energy-MMFF94s>
492.95697

> <b_mmod_Minimization_Converged-MMFF94s>
1

> <r_mmod_RMS_Derivative-MMFF94s>
0.009239

> <i_mmod_Times_Found-MMFF94s>
986

> <r_mmod_Relative_Potential_Energy-MMFF94s>
0

> <i_mmod_Conformation-MMFF94s>
1

> <s_lp_label>
 _7

> <i_mmod_Serial_Number-MMFF94s>
7

$$$$
