CHEMBL1999484.smi
                    3D
 Structure written by MMmdl.
 50 53  0  0  1  0            999 V2000
    9.4901   -2.2946  -10.9189 C   0  0  0  0  0  0
    9.3611   -3.6609  -10.4841 N   0  0  0  0  0  0
    8.4145   -4.0078   -9.5919 C   0  0  0  0  0  0
    7.5583   -3.1808   -9.0442 N   0  0  0  0  0  0
    6.7123   -3.8541   -8.1733 C   0  0  0  0  0  0
    5.6717   -3.0578   -7.4680 C   0  0  0  0  0  0
    6.9532   -5.2166   -8.0549 C   0  0  0  0  0  0
    8.2638   -5.6408   -9.0850 S   0  0  0  0  0  0
    6.2666   -6.2303   -7.2517 C   0  0  0  0  0  0
    6.9261   -7.2627   -6.6232 C   0  0  0  0  0  0
    6.1336   -8.1098   -5.8938 C   0  0  0  0  0  0
    4.8015   -7.9674   -5.7827 N   0  0  0  0  0  0
    4.2336   -6.9387   -6.4333 C   0  0  0  0  0  0
    2.8559   -6.8340   -6.2733 N   0  0  0  0  0  0
    1.8788   -6.0033   -6.8266 C   0  0  0  0  0  0
    2.1106   -5.1196   -7.8784 C   0  0  0  0  0  0
    1.0926   -4.2868   -8.3725 C   0  0  0  0  0  0
   -0.2017   -4.3027   -7.8400 C   0  0  0  0  0  0
   -0.4225   -5.1826   -6.7735 C   0  0  0  0  0  0
    0.5926   -6.0142   -6.2767 C   0  0  0  0  0  0
   -1.2208   -3.4816   -8.3101 N   0  0  0  0  0  0
   -2.5153   -4.1071   -8.6458 C   0  0  0  0  0  0
   -3.6480   -3.0562   -8.6830 C   0  0  0  0  0  0
   -3.3590   -1.8996   -9.5507 N   0  0  0  0  0  0
   -2.0850   -1.2930   -9.1225 C   0  0  0  0  0  0
   -0.8999   -2.2844   -9.1070 C   0  0  0  0  0  0
    4.9326   -6.0575   -7.1599 N   0  0  0  0  0  0
    9.7180   -1.6313  -10.0778 H   0  0  0  0  0  0
    8.5754   -1.9477  -11.4111 H   0  0  0  0  0  0
   10.3093   -2.2128  -11.6402 H   0  0  0  0  0  0
    9.9846   -4.3546  -10.8748 H   0  0  0  0  0  0
    4.7021   -3.1804   -7.9585 H   0  0  0  0  0  0
    5.9251   -1.9927   -7.4827 H   0  0  0  0  0  0
    5.5813   -3.3618   -6.4207 H   0  0  0  0  0  0
    7.9965   -7.4021   -6.6766 H   0  0  0  0  0  0
    6.5571   -8.9527   -5.3556 H   0  0  0  0  0  0
    2.5413   -7.5518   -5.6379 H   0  0  0  0  0  0
    3.0833   -5.0667   -8.3575 H   0  0  0  0  0  0
    1.3419   -3.6398   -9.2084 H   0  0  0  0  0  0
   -1.3905   -5.2104   -6.2811 H   0  0  0  0  0  0
    0.3610   -6.6645   -5.4370 H   0  0  0  0  0  0
   -2.8044   -4.8784   -7.9243 H   0  0  0  0  0  0
   -2.4322   -4.5936   -9.6263 H   0  0  0  0  0  0
   -4.5668   -3.5368   -9.0368 H   0  0  0  0  0  0
   -3.8452   -2.7002   -7.6637 H   0  0  0  0  0  0
   -4.1043   -1.2125   -9.4465 H   0  0  0  0  0  0
   -1.8468   -0.4648   -9.7989 H   0  0  0  0  0  0
   -2.2111   -0.8620   -8.1210 H   0  0  0  0  0  0
   -0.6549   -2.5791  -10.1353 H   0  0  0  0  0  0
   -0.0350   -1.7586   -8.6842 H   0  0  0  0  0  0
  1  2  1  0  0  0
  1 28  1  0  0  0
  1 29  1  0  0  0
  1 30  1  0  0  0
  2  3  1  0  0  0
  2 31  1  0  0  0
  3  8  1  0  0  0
  3  4  2  0  0  0
  4  5  1  0  0  0
  5  7  2  0  0  0
  5  6  1  0  0  0
  6 32  1  0  0  0
  6 33  1  0  0  0
  6 34  1  0  0  0
  7  8  1  0  0  0
  7  9  1  0  0  0
  9 27  1  0  0  0
  9 10  2  0  0  0
 10 11  1  0  0  0
 10 35  1  0  0  0
 11 12  2  0  0  0
 11 36  1  0  0  0
 12 13  1  0  0  0
 13 27  2  0  0  0
 13 14  1  0  0  0
 14 15  1  0  0  0
 14 37  1  0  0  0
 15 16  2  0  0  0
 15 20  1  0  0  0
 16 17  1  0  0  0
 16 38  1  0  0  0
 17 18  2  0  0  0
 17 39  1  0  0  0
 18 19  1  0  0  0
 18 21  1  0  0  0
 19 20  2  0  0  0
 19 40  1  0  0  0
 20 41  1  0  0  0
 21 26  1  0  0  0
 21 22  1  0  0  0
 22 23  1  0  0  0
 22 42  1  0  0  0
 22 43  1  0  0  0
 23 24  1  0  0  0
 23 44  1  0  0  0
 23 45  1  0  0  0
 24 25  1  0  0  0
 24 46  1  0  0  0
 25 26  1  0  0  0
 25 47  1  0  0  0
 25 48  1  0  0  0
 26 49  1  0  0  0
 26 50  1  0  0  0
M  END
> <s_m_entry_id>
195

> <s_m_entry_name>
CHEMBL1999484.1

> <s_m_job_name>
mmod_csearch_27

> <s_lp_label>
 _44

> <r_mmod_Potential_Energy-MMFF94s>
-31.621513

> <b_mmod_Minimization_Converged-MMFF94s>
1

> <r_mmod_RMS_Derivative-MMFF94s>
0.008656

> <i_mmod_Times_Found-MMFF94s>
151

> <r_mmod_Relative_Potential_Energy-MMFF94s>
0

> <i_mmod_Conformation-MMFF94s>
1

> <i_mmod_Serial_Number-MMFF94s>
44

$$$$
