CHEMBL1995811.smi
                    3D
 Structure written by MMmdl.
 48 52  0  0  1  0            999 V2000
    1.4015    1.5077   -0.4991 F   0  0  0  0  0  0
    2.4953    0.8397   -0.1124 C   0  0  0  0  0  0
    3.6389    1.5485    0.2375 C   0  0  0  0  0  0
    4.7765    0.8528    0.6395 C   0  0  0  0  0  0
    4.7545   -0.5425    0.6862 C   0  0  0  0  0  0
    5.8731   -1.1702    1.0783 F   0  0  0  0  0  0
    3.6077   -1.2638    0.3360 C   0  0  0  0  0  0
    2.4679   -0.5509   -0.0677 C   0  0  0  0  0  0
    3.5331   -2.7574    0.3702 C   0  0  0  0  0  0
    2.4792   -3.2761    0.0215 O   0  0  0  0  0  0
    4.6616   -3.4134    0.7860 N   0  0  0  0  0  0
    4.8815   -4.7652    0.9312 C   0  0  0  0  0  0
    6.1179   -5.0953    1.3253 N   0  0  0  0  0  0
    6.1009   -6.4312    1.3902 N   0  0  0  0  0  0
    6.9489   -6.9101    1.6705 H   0  0  0  0  0  0
    4.9015   -6.9943    1.0632 C   0  0  0  0  0  0
    4.5043   -8.3332    1.0197 C   0  0  0  0  0  0
    3.1833   -8.5971    0.6460 C   0  0  0  0  0  0
    2.2889   -7.5678    0.3292 C   0  0  0  0  0  0
    2.7326   -6.2316    0.3871 C   0  0  0  0  0  0
    4.0621   -5.9248    0.7555 C   0  0  0  0  0  0
    0.9246   -7.9003   -0.0505 C   0  0  0  0  0  0
   -0.0792   -7.0287   -0.4115 C   0  0  0  0  0  0
   -1.1493   -7.8391   -0.6564 N   0  0  0  0  0  0
   -2.4725   -7.4567   -1.1122 C   0  0  0  0  0  0
   -3.2709   -6.7942   -0.0175 C   0  0  0  0  0  0
   -3.7458   -7.5442    1.0696 C   0  0  0  0  0  0
   -4.4805   -6.9318    2.0856 C   0  0  0  0  0  0
   -4.7488   -5.5659    2.0267 C   0  0  0  0  0  0
   -4.2819   -4.8102    0.9530 C   0  0  0  0  0  0
   -3.5461   -5.4196   -0.0648 C   0  0  0  0  0  0
   -0.8325   -9.1358   -0.4875 N   0  0  0  0  0  0
    0.4374   -9.1847   -0.1073 N   0  0  0  0  0  0
    3.6344    2.6335    0.1943 H   0  0  0  0  0  0
    5.6815    1.3857    0.9171 H   0  0  0  0  0  0
    1.5533   -1.0669   -0.3490 H   0  0  0  0  0  0
    5.4934   -2.8877    1.0281 H   0  0  0  0  0  0
    5.1840   -9.1429    1.2652 H   0  0  0  0  0  0
    2.8534   -9.6350    0.6064 H   0  0  0  0  0  0
    2.0457   -5.4301    0.1511 H   0  0  0  0  0  0
   -0.1340   -5.9543   -0.5034 H   0  0  0  0  0  0
   -2.9921   -8.3519   -1.4736 H   0  0  0  0  0  0
   -2.3361   -6.7890   -1.9708 H   0  0  0  0  0  0
   -3.5379   -8.6115    1.1351 H   0  0  0  0  0  0
   -4.8397   -7.5210    2.9256 H   0  0  0  0  0  0
   -5.3191   -5.0899    2.8201 H   0  0  0  0  0  0
   -4.4892   -3.7439    0.9104 H   0  0  0  0  0  0
   -3.1884   -4.8097   -0.8917 H   0  0  0  0  0  0
  1  2  1  0  0  0
  2  3  2  0  0  0
  2  8  1  0  0  0
  3  4  1  0  0  0
  3 34  1  0  0  0
  4  5  2  0  0  0
  4 35  1  0  0  0
  5  7  1  0  0  0
  5  6  1  0  0  0
  7  8  2  0  0  0
  7  9  1  0  0  0
  8 36  1  0  0  0
  9 11  1  0  0  0
  9 10  2  0  0  0
 11 12  1  0  0  0
 11 37  1  0  0  0
 12 21  1  0  0  0
 12 13  2  0  0  0
 13 14  1  0  0  0
 14 16  1  0  0  0
 14 15  1  0  0  0
 16 21  1  0  0  0
 16 17  2  0  0  0
 17 18  1  0  0  0
 17 38  1  0  0  0
 18 19  2  0  0  0
 18 39  1  0  0  0
 19 20  1  0  0  0
 19 22  1  0  0  0
 20 21  2  0  0  0
 20 40  1  0  0  0
 22 23  2  0  0  0
 22 33  1  0  0  0
 23 24  1  0  0  0
 23 41  1  0  0  0
 24 32  1  0  0  0
 24 25  1  0  0  0
 25 26  1  0  0  0
 25 42  1  0  0  0
 25 43  1  0  0  0
 26 27  2  0  0  0
 26 31  1  0  0  0
 27 28  1  0  0  0
 27 44  1  0  0  0
 28 29  2  0  0  0
 28 45  1  0  0  0
 29 30  1  0  0  0
 29 46  1  0  0  0
 30 31  2  0  0  0
 30 47  1  0  0  0
 31 48  1  0  0  0
 32 33  2  0  0  0
M  END
> <s_m_entry_id>
13587

> <s_m_job_name>
mmod_csearch_16

> <r_mmod_Potential_Energy-MMFF94s>
162.155411

> <b_mmod_Minimization_Converged-MMFF94s>
0

> <r_mmod_RMS_Derivative-MMFF94s>
0.082959

> <i_mmod_Times_Found-MMFF94s>
694

> <r_mmod_Relative_Potential_Energy-MMFF94s>
0

> <i_mmod_Conformation-MMFF94s>
1

> <s_lp_label>
 _90

> <i_mmod_Serial_Number-MMFF94s>
90

$$$$
