CHEMBL1997007.smi
                    3D
 Structure written by MMmdl.
 45 47  0  0  1  0            999 V2000
    4.6144    0.8759   -1.3714 C   0  0  0  0  0  0
    4.0208   -0.4967   -1.6552 C   0  0  0  0  0  0
    4.3937   -1.5295   -0.5937 C   0  0  0  0  0  0
    5.8156   -1.8039   -0.5633 N   0  0  0  0  0  0
    6.4002   -2.7004   -1.4334 C   0  0  0  0  0  0
    5.7697   -3.3563   -2.2548 O   0  0  0  0  0  0
    7.8739   -2.8726   -1.3140 C   0  0  0  0  0  0
    8.4314   -4.1027   -1.6682 C   0  0  0  0  0  0
    9.8128   -4.3031   -1.5685 C   0  0  0  0  0  0
   10.6717   -3.2837   -1.1255 C   0  0  0  0  0  0
   12.0402   -3.5539   -1.0465 N   0  0  0  0  0  0
   13.1616   -2.8217   -0.6602 C   0  0  0  0  0  0
   14.3182   -3.5161   -0.7523 N   0  0  0  0  0  0
   15.5044   -2.9379   -0.4059 C   0  0  0  0  0  0
   16.7476   -3.7686   -0.5533 C   0  0  0  0  0  0
   17.3642   -3.6042   -1.9331 C   0  0  0  0  0  0
   15.4820   -1.6102    0.0314 C   0  0  0  0  0  0
   16.4290   -0.6410    0.4633 C   0  0  0  0  0  0
   15.7365    0.5140    0.7635 C   0  0  0  0  0  0
   14.4060    0.2761    0.5273 N   0  0  0  0  0  0
   13.6474    0.9307    0.6516 H   0  0  0  0  0  0
   14.2387   -1.0065    0.0822 C   0  0  0  0  0  0
   13.0607   -1.5517   -0.2421 N   0  0  0  0  0  0
   10.0973   -2.0523   -0.7934 C   0  0  0  0  0  0
    8.7143   -1.8409   -0.8884 C   0  0  0  0  0  0
    4.2952    1.2462   -0.3920 H   0  0  0  0  0  0
    4.2837    1.5932   -2.1292 H   0  0  0  0  0  0
    5.7084    0.8489   -1.3899 H   0  0  0  0  0  0
    4.3504   -0.8327   -2.6451 H   0  0  0  0  0  0
    2.9289   -0.4066   -1.6921 H   0  0  0  0  0  0
    3.8586   -2.4658   -0.7875 H   0  0  0  0  0  0
    4.1069   -1.1792    0.4034 H   0  0  0  0  0  0
    6.3700   -1.3633    0.1568 H   0  0  0  0  0  0
    7.7936   -4.9111   -2.0202 H   0  0  0  0  0  0
   10.2143   -5.2751   -1.8470 H   0  0  0  0  0  0
   12.3458   -4.4765   -1.3209 H   0  0  0  0  0  0
   16.5001   -4.8231   -0.3846 H   0  0  0  0  0  0
   17.4758   -3.4871    0.2157 H   0  0  0  0  0  0
   18.2621   -4.2238   -2.0231 H   0  0  0  0  0  0
   17.6500   -2.5634   -2.1198 H   0  0  0  0  0  0
   16.6631   -3.9054   -2.7190 H   0  0  0  0  0  0
   17.5002   -0.7717    0.5458 H   0  0  0  0  0  0
   16.0723    1.4784    1.1214 H   0  0  0  0  0  0
   10.7149   -1.2231   -0.4621 H   0  0  0  0  0  0
    8.3237   -0.8556   -0.6535 H   0  0  0  0  0  0
  1  2  1  0  0  0
  1 26  1  0  0  0
  1 27  1  0  0  0
  1 28  1  0  0  0
  2  3  1  0  0  0
  2 29  1  0  0  0
  2 30  1  0  0  0
  3  4  1  0  0  0
  3 31  1  0  0  0
  3 32  1  0  0  0
  4  5  1  0  0  0
  4 33  1  0  0  0
  5  7  1  0  0  0
  5  6  2  0  0  0
  7  8  2  0  0  0
  7 25  1  0  0  0
  8  9  1  0  0  0
  8 34  1  0  0  0
  9 10  2  0  0  0
  9 35  1  0  0  0
 10 24  1  0  0  0
 10 11  1  0  0  0
 11 12  1  0  0  0
 11 36  1  0  0  0
 12 13  2  0  0  0
 12 23  1  0  0  0
 13 14  1  0  0  0
 14 17  2  0  0  0
 14 15  1  0  0  0
 15 16  1  0  0  0
 15 37  1  0  0  0
 15 38  1  0  0  0
 16 39  1  0  0  0
 16 40  1  0  0  0
 16 41  1  0  0  0
 17 18  1  0  0  0
 17 22  1  0  0  0
 18 19  2  0  0  0
 18 42  1  0  0  0
 19 20  1  0  0  0
 19 43  1  0  0  0
 20 22  1  0  0  0
 20 21  1  0  0  0
 22 23  2  0  0  0
 24 25  2  0  0  0
 24 44  1  0  0  0
 25 45  1  0  0  0
M  END
> <s_m_entry_id>
187

> <s_m_entry_name>
CHEMBL1997007.1

> <s_m_job_name>
mmod_csearch_27

> <s_lp_label>
 _36

> <r_mmod_Potential_Energy-MMFF94s>
-154.835129

> <b_mmod_Minimization_Converged-MMFF94s>
1

> <r_mmod_RMS_Derivative-MMFF94s>
0.009958

> <i_mmod_Times_Found-MMFF94s>
46

> <r_mmod_Relative_Potential_Energy-MMFF94s>
0

> <i_mmod_Conformation-MMFF94s>
1

> <i_mmod_Serial_Number-MMFF94s>
36

$$$$
