CHEMBL1976040.smi
                    3D
 Structure written by MMmdl.
 69 73  0  0  1  0            999 V2000
    6.7491    6.2253   -7.6455 C   0  0  0  0  0  0
    7.6260    5.6716   -8.6748 N   0  0  0  0  0  0
    7.2226    4.2898   -9.0146 C   0  0  0  0  0  0
    8.0925    3.6620  -10.1284 C   0  0  0  0  0  0
    8.1385    4.5282  -11.3227 N   0  0  0  0  0  0
    8.4598    5.9372  -11.0388 C   0  0  0  0  0  0
    7.5726    6.4950   -9.9022 C   0  0  0  0  0  0
    8.5137    3.9527  -12.5311 C   0  0  0  0  0  0
    9.5141    4.4896  -13.3495 C   0  0  0  0  0  0
    9.8751    3.8940  -14.5697 C   0  0  0  0  0  0
    9.2365    2.7453  -15.0333 C   0  0  0  0  0  0
    9.5678    2.0929  -16.2236 N   0  0  0  0  0  0
   10.6203    2.2123  -17.1244 C   0  0  0  0  0  0
   10.4896    1.4655  -18.2480 N   0  0  0  0  0  0
   11.4729    1.5280  -19.1697 C   0  0  0  0  0  0
   12.5628    2.3051  -18.9600 C   0  0  0  0  0  0
   13.7510    2.5668  -19.7448 C   0  0  0  0  0  0
   13.9934    2.0147  -20.8016 O   0  0  0  0  0  0
   14.5159    3.4649  -19.0158 N   0  0  0  0  0  0
   15.9356    3.6424  -19.2402 C   0  0  0  0  0  0
   16.7147    2.7306  -18.3343 C   0  0  0  0  0  0
   17.5514    3.1502  -17.3756 C   0  0  0  0  0  0
   13.8710    3.7626  -17.7759 N   0  0  0  0  0  0
   14.2608    4.8395  -16.9475 C   0  0  0  0  0  0
   13.8621    4.8604  -15.6092 C   0  0  0  0  0  0
   14.2370    5.9135  -14.7784 C   0  0  0  0  0  0
   15.0058    6.9451  -15.2937 C   0  0  0  0  0  0
   15.3745    6.8907  -16.6320 C   0  0  0  0  0  0
   15.0136    5.8543  -17.4448 N   0  0  0  0  0  0
   16.2170    7.9874  -17.2821 C   0  0  0  0  0  0
   15.5718    9.3676  -17.1424 C   0  0  0  0  0  0
   17.6412    7.9854  -16.7256 C   0  0  0  0  0  0
   16.3230    7.7299  -18.6941 O   0  0  0  0  0  0
   12.6568    3.0129  -17.7900 C   0  0  0  0  0  0
   11.6871    2.9920  -16.8637 N   0  0  0  0  0  0
    8.2308    2.2053  -14.2249 C   0  0  0  0  0  0
    7.8769    2.7989  -13.0040 C   0  0  0  0  0  0
    7.0647    7.2401   -7.3791 H   0  0  0  0  0  0
    6.8080    5.6267   -6.7299 H   0  0  0  0  0  0
    5.7015    6.2633   -7.9654 H   0  0  0  0  0  0
    6.1722    4.2703   -9.3358 H   0  0  0  0  0  0
    7.3029    3.6567   -8.1226 H   0  0  0  0  0  0
    9.1146    3.5127   -9.7571 H   0  0  0  0  0  0
    7.6808    2.6716  -10.3496 H   0  0  0  0  0  0
    9.5165    6.0264  -10.7566 H   0  0  0  0  0  0
    8.2885    6.5584  -11.9266 H   0  0  0  0  0  0
    7.9107    7.5132   -9.6748 H   0  0  0  0  0  0
    6.5381    6.5675  -10.2649 H   0  0  0  0  0  0
   10.0573    5.3804  -13.0490 H   0  0  0  0  0  0
   10.6559    4.3709  -15.1532 H   0  0  0  0  0  0
    8.9129    1.4032  -16.5628 H   0  0  0  0  0  0
   11.3440    0.9345  -20.0670 H   0  0  0  0  0  0
   16.2175    4.6904  -19.1335 H   0  0  0  0  0  0
   16.1626    3.3648  -20.2763 H   0  0  0  0  0  0
   16.5912    1.6626  -18.4980 H   0  0  0  0  0  0
   17.7061    4.2078  -17.1815 H   0  0  0  0  0  0
   18.0934    2.4403  -16.7589 H   0  0  0  0  0  0
   13.2759    4.0471  -15.1919 H   0  0  0  0  0  0
   13.9310    5.9196  -13.7358 H   0  0  0  0  0  0
   15.3070    7.7687  -14.6551 H   0  0  0  0  0  0
   14.5589    9.3689  -17.5627 H   0  0  0  0  0  0
   16.1402   10.1206  -17.7007 H   0  0  0  0  0  0
   15.5078    9.6945  -16.0995 H   0  0  0  0  0  0
   18.1175    7.0088  -16.8741 H   0  0  0  0  0  0
   17.6668    8.2165  -15.6554 H   0  0  0  0  0  0
   18.2657    8.7178  -17.2502 H   0  0  0  0  0  0
   15.7887    6.9217  -18.8406 H   0  0  0  0  0  0
    7.7002    1.3084  -14.5344 H   0  0  0  0  0  0
    7.0633    2.3543  -12.4375 H   0  0  0  0  0  0
  1  2  1  0  0  0
  1 38  1  0  0  0
  1 39  1  0  0  0
  1 40  1  0  0  0
  2  7  1  0  0  0
  2  3  1  0  0  0
  3  4  1  0  0  0
  3 41  1  0  0  0
  3 42  1  0  0  0
  4  5  1  0  0  0
  4 43  1  0  0  0
  4 44  1  0  0  0
  5  6  1  0  0  0
  5  8  1  0  0  0
  6  7  1  0  0  0
  6 45  1  0  0  0
  6 46  1  0  0  0
  7 47  1  0  0  0
  7 48  1  0  0  0
  8  9  2  0  0  0
  8 37  1  0  0  0
  9 10  1  0  0  0
  9 49  1  0  0  0
 10 11  2  0  0  0
 10 50  1  0  0  0
 11 36  1  0  0  0
 11 12  1  0  0  0
 12 13  1  0  0  0
 12 51  1  0  0  0
 13 14  2  0  0  0
 13 35  1  0  0  0
 14 15  1  0  0  0
 15 16  2  0  0  0
 15 52  1  0  0  0
 16 17  1  0  0  0
 16 34  1  0  0  0
 17 19  1  0  0  0
 17 18  2  0  0  0
 19 23  1  0  0  0
 19 20  1  0  0  0
 20 21  1  0  0  0
 20 53  1  0  0  0
 20 54  1  0  0  0
 21 22  2  0  0  0
 21 55  1  0  0  0
 22 56  1  0  0  0
 22 57  1  0  0  0
 23 34  1  0  0  0
 23 24  1  0  0  0
 24 29  1  0  0  0
 24 25  2  0  0  0
 25 26  1  0  0  0
 25 58  1  0  0  0
 26 27  2  0  0  0
 26 59  1  0  0  0
 27 28  1  0  0  0
 27 60  1  0  0  0
 28 29  2  0  0  0
 28 30  1  0  0  0
 30 33  1  0  0  0
 30 32  1  0  0  0
 30 31  1  0  0  0
 31 61  1  0  0  0
 31 62  1  0  0  0
 31 63  1  0  0  0
 32 64  1  0  0  0
 32 65  1  0  0  0
 32 66  1  0  0  0
 33 67  1  0  0  0
 34 35  2  0  0  0
 36 37  2  0  0  0
 36 68  1  0  0  0
 37 69  1  0  0  0
M  END
> <s_m_entry_id>
150

> <s_m_entry_name>
CHEMBL1976040.1

> <s_m_job_name>
mmod_csearch_26

> <s_lp_label>
 _6

> <r_mmod_Potential_Energy-MMFF94s>
351.701477

> <b_mmod_Minimization_Converged-MMFF94s>
1

> <r_mmod_RMS_Derivative-MMFF94s>
0.012579

> <i_mmod_Times_Found-MMFF94s>
61

> <r_mmod_Relative_Potential_Energy-MMFF94s>
0

> <i_mmod_Conformation-MMFF94s>
1

> <i_mmod_Serial_Number-MMFF94s>
6

$$$$
