CHEMBL1980376.smi
                    3D
 Structure written by MMmdl.
 29 31  0  0  1  0            999 V2000
    2.6703    0.7213    2.7463 C   0  0  0  0  0  0
    3.0231    0.2246    1.3754 C   0  0  0  0  0  0
    2.5491    0.8853    0.2372 C   0  0  0  0  0  0
    2.9058    0.4415   -1.0358 C   0  0  0  0  0  0
    3.7471   -0.6619   -1.1817 C   0  0  0  0  0  0
    4.2441   -1.3342   -0.0568 C   0  0  0  0  0  0
    3.8803   -0.8737    1.2189 C   0  0  0  0  0  0
    5.1165   -2.4951   -0.2081 C   0  0  0  0  0  0
    6.5126   -2.3505   -0.3565 C   0  0  0  0  0  0
    7.3519   -3.4590   -0.4982 C   0  0  0  0  0  0
    6.8337   -4.7555   -0.4981 C   0  0  0  0  0  0
    5.4530   -4.8710   -0.3518 C   0  0  0  0  0  0
    4.7564   -6.0365   -0.3272 O   0  0  0  0  0  0
    3.4098   -5.7673   -0.1701 N   0  0  0  0  0  0
    3.3071   -4.4373   -0.1021 C   0  0  0  0  0  0
    2.1397   -3.7912    0.0469 N   0  0  0  0  0  0
    4.5797   -3.8046   -0.2090 C   0  0  0  0  0  0
    3.4166    1.4465    3.0849 H   0  0  0  0  0  0
    2.6292   -0.1064    3.4623 H   0  0  0  0  0  0
    1.6855    1.2001    2.7474 H   0  0  0  0  0  0
    1.8995    1.7525    0.3355 H   0  0  0  0  0  0
    2.5309    0.9578   -1.9160 H   0  0  0  0  0  0
    4.0140   -0.9990   -2.1816 H   0  0  0  0  0  0
    4.2669   -1.3835    2.1007 H   0  0  0  0  0  0
    6.9497   -1.3525   -0.3587 H   0  0  0  0  0  0
    8.4240   -3.3100   -0.6094 H   0  0  0  0  0  0
    7.4655   -5.6290   -0.6061 H   0  0  0  0  0  0
    2.0596   -2.7819    0.0923 H   0  0  0  0  0  0
    1.2743   -4.3120    0.1140 H   0  0  0  0  0  0
  1  2  1  0  0  0
  1 18  1  0  0  0
  1 19  1  0  0  0
  1 20  1  0  0  0
  2  3  2  0  0  0
  2  7  1  0  0  0
  3  4  1  0  0  0
  3 21  1  0  0  0
  4  5  2  0  0  0
  4 22  1  0  0  0
  5  6  1  0  0  0
  5 23  1  0  0  0
  6  7  2  0  0  0
  6  8  1  0  0  0
  7 24  1  0  0  0
  8  9  2  0  0  0
  8 17  1  0  0  0
  9 10  1  0  0  0
  9 25  1  0  0  0
 10 11  2  0  0  0
 10 26  1  0  0  0
 11 12  1  0  0  0
 11 27  1  0  0  0
 12 13  1  0  0  0
 12 17  2  0  0  0
 13 14  1  0  0  0
 14 15  2  0  0  0
 15 17  1  0  0  0
 15 16  1  0  0  0
 16 28  1  0  0  0
 16 29  1  0  0  0
M  END
> <s_m_entry_id>
750

> <s_m_job_name>
mmod_csearch_9

> <r_mmod_Potential_Energy-MMFF94s>
88.674957

> <b_mmod_Minimization_Converged-MMFF94s>
1

> <r_mmod_RMS_Derivative-MMFF94s>
0.009633

> <i_mmod_Times_Found-MMFF94s>
1007

> <r_mmod_Relative_Potential_Energy-MMFF94s>
0

> <i_mmod_Conformation-MMFF94s>
1

> <s_lp_label>
 _14

> <i_mmod_Serial_Number-MMFF94s>
14

$$$$
