CHEMBL1970317.smi
                    3D
 Structure written by MMmdl.
 52 56  0  0  1  0            999 V2000
   -1.3686    2.0080    5.7807 C   0  0  0  0  0  0
   -0.1878    2.0880    4.9560 N   0  0  0  0  0  0
    0.6583    3.1521    4.8312 C   0  0  0  0  0  0
    1.6261    2.7697    3.9250 C   0  0  0  0  0  0
    1.2746    1.4449    3.5829 C   0  0  0  0  0  0
    0.1720    1.0277    4.2114 N   0  0  0  0  0  0
    2.7307    3.6027    3.5103 C   0  0  0  0  0  0
    3.5340    4.2547    4.4298 C   0  0  0  0  0  0
    4.5841    5.0345    4.1161 N   0  0  0  0  0  0
    4.9179    5.2221    2.8228 C   0  0  0  0  0  0
    6.0203    6.0148    2.6168 N   0  0  0  0  0  0
    4.1532    4.6151    1.7884 C   0  0  0  0  0  0
    4.2859    4.6751    0.3420 C   0  0  0  0  0  0
    3.3296    3.9348   -0.3151 C   0  0  0  0  0  0
    2.2594    3.1736    0.7558 S   0  0  0  0  0  0
    3.0626    3.8036    2.1559 C   0  0  0  0  0  0
    5.2641    5.4175   -0.4352 C   0  0  0  0  0  0
    6.4271    4.7915   -0.8875 C   0  0  0  0  0  0
    7.3764    5.5131   -1.6214 C   0  0  0  0  0  0
    7.1749    6.8645   -1.9104 C   0  0  0  0  0  0
    8.0786    7.6635   -2.6430 N   0  0  0  0  0  0
    9.3070    7.2904   -3.1741 C   0  0  0  0  0  0
    9.8110    6.1818   -3.0573 O   0  0  0  0  0  0
    9.8820    8.3558   -3.8555 N   0  0  0  0  0  0
   11.1322    8.3895   -4.5117 C   0  0  0  0  0  0
   12.0266    7.3155   -4.5577 C   0  0  0  0  0  0
   13.2502    7.4311   -5.2297 C   0  0  0  0  0  0
   13.5903    8.6234   -5.8614 C   0  0  0  0  0  0
   12.7030    9.6892   -5.8147 C   0  0  0  0  0  0
   13.0229   10.8408   -6.4199 F   0  0  0  0  0  0
   11.4843    9.5846   -5.1495 C   0  0  0  0  0  0
    6.0035    7.4847   -1.4535 C   0  0  0  0  0  0
    5.0530    6.7682   -0.7197 C   0  0  0  0  0  0
   -1.5074    2.9537    6.3102 H   0  0  0  0  0  0
   -1.2335    1.1948    6.4982 H   0  0  0  0  0  0
   -2.2279    1.8127    5.1343 H   0  0  0  0  0  0
    0.4956    4.0727    5.3746 H   0  0  0  0  0  0
    1.7791    0.7641    2.9091 H   0  0  0  0  0  0
    3.3566    4.1549    5.4979 H   0  0  0  0  0  0
    6.4872    6.3473    3.4472 H   0  0  0  0  0  0
    6.4165    6.1676    1.7050 H   0  0  0  0  0  0
    3.2029    3.8121   -1.3830 H   0  0  0  0  0  0
    6.6103    3.7407   -0.6718 H   0  0  0  0  0  0
    8.2636    4.9825   -1.9531 H   0  0  0  0  0  0
    7.7996    8.6214   -2.7810 H   0  0  0  0  0  0
    9.3422    9.2050   -3.9038 H   0  0  0  0  0  0
   11.8054    6.3664   -4.0784 H   0  0  0  0  0  0
   13.9328    6.5850   -5.2552 H   0  0  0  0  0  0
   14.5346    8.7271   -6.3856 H   0  0  0  0  0  0
   10.8286   10.4488   -5.1445 H   0  0  0  0  0  0
    5.8113    8.5348   -1.6586 H   0  0  0  0  0  0
    4.1538    7.2708   -0.3694 H   0  0  0  0  0  0
  1  2  1  0  0  0
  1 34  1  0  0  0
  1 35  1  0  0  0
  1 36  1  0  0  0
  2  3  1  0  0  0
  2  6  1  0  0  0
  3  4  2  0  0  0
  3 37  1  0  0  0
  4  5  1  0  0  0
  4  7  1  0  0  0
  5  6  2  0  0  0
  5 38  1  0  0  0
  7  8  2  0  0  0
  7 16  1  0  0  0
  8  9  1  0  0  0
  8 39  1  0  0  0
  9 10  2  0  0  0
 10 12  1  0  0  0
 10 11  1  0  0  0
 11 40  1  0  0  0
 11 41  1  0  0  0
 12 16  2  0  0  0
 12 13  1  0  0  0
 13 14  2  0  0  0
 13 17  1  0  0  0
 14 15  1  0  0  0
 14 42  1  0  0  0
 15 16  1  0  0  0
 17 18  2  0  0  0
 17 33  1  0  0  0
 18 19  1  0  0  0
 18 43  1  0  0  0
 19 20  2  0  0  0
 19 44  1  0  0  0
 20 32  1  0  0  0
 20 21  1  0  0  0
 21 22  1  0  0  0
 21 45  1  0  0  0
 22 24  1  0  0  0
 22 23  2  0  0  0
 24 25  1  0  0  0
 24 46  1  0  0  0
 25 26  2  0  0  0
 25 31  1  0  0  0
 26 27  1  0  0  0
 26 47  1  0  0  0
 27 28  2  0  0  0
 27 48  1  0  0  0
 28 29  1  0  0  0
 28 49  1  0  0  0
 29 31  2  0  0  0
 29 30  1  0  0  0
 31 50  1  0  0  0
 32 33  2  0  0  0
 32 51  1  0  0  0
 33 52  1  0  0  0
M  END
> <s_m_entry_id>
142

> <s_m_entry_name>
CHEMBL1970317.1

> <s_m_job_name>
mmod_csearch_25

> <s_lp_label>
 _6

> <r_mmod_Potential_Energy-MMFF94s>
-94.498238

> <b_mmod_Minimization_Converged-MMFF94s>
1

> <r_mmod_RMS_Derivative-MMFF94s>
0.012193

> <i_mmod_Times_Found-MMFF94s>
112

> <r_mmod_Relative_Potential_Energy-MMFF94s>
0

> <i_mmod_Conformation-MMFF94s>
1

> <i_mmod_Serial_Number-MMFF94s>
6

$$$$
