CHEMBL1081312.smi
                    3D
 Structure written by MMmdl.
 41 45  0  0  1  0            999 V2000
    1.1166    0.4722    1.0226 N   0  0  0  0  0  0
    2.4609    0.2800    0.8147 C   0  0  0  0  0  0
    3.2532    1.3612    0.9778 N   0  0  0  0  0  0
    4.5842    1.2165    0.8352 C   0  0  0  0  0  0
    5.2659    0.0978    0.5450 N   0  0  0  0  0  0
    4.4394   -0.9496    0.3785 C   0  0  0  0  0  0
    3.0578   -0.9423    0.4773 C   0  0  0  0  0  0
    2.6681   -2.2846    0.1905 C   0  0  0  0  0  0
    3.7367   -3.0764   -0.0055 N   0  0  0  0  0  0
    4.7932   -2.2383    0.0869 N   0  0  0  0  0  0
    6.1460   -2.7387   -0.0941 C   0  0  0  0  0  0
    6.5835   -3.6671    1.0527 C   0  0  0  0  0  0
    7.2196   -4.8752    0.3768 C   0  0  0  0  0  0
    6.4644   -4.9945   -0.9353 C   0  0  0  0  0  0
    6.3296   -3.5478   -1.3898 C   0  0  0  0  0  0
    1.3265   -2.8405    0.0991 C   0  0  0  0  0  0
    0.9879   -3.9904    0.8128 C   0  0  0  0  0  0
   -0.2297   -4.5925    0.8291 N   0  0  0  0  0  0
   -1.1232   -3.9720    0.0380 C   0  0  0  0  0  0
   -2.4180   -4.3784   -0.1334 N   0  0  0  0  0  0
   -2.8138   -5.1871    0.3231 H   0  0  0  0  0  0
   -3.0585   -3.5339   -1.0048 C   0  0  0  0  0  0
   -2.1539   -2.5702   -1.4008 C   0  0  0  0  0  0
   -0.9232   -2.8387   -0.7426 C   0  0  0  0  0  0
    0.3524   -2.2510   -0.7171 C   0  0  0  0  0  0
    0.8378    1.4012    1.3046 H   0  0  0  0  0  0
    0.4581   -0.2887    1.0581 H   0  0  0  0  0  0
    5.1769    2.1153    0.9771 H   0  0  0  0  0  0
    6.8084   -1.8657   -0.1349 H   0  0  0  0  0  0
    5.7332   -3.9903    1.6654 H   0  0  0  0  0  0
    7.2927   -3.1705    1.7234 H   0  0  0  0  0  0
    8.2820   -4.6826    0.1856 H   0  0  0  0  0  0
    7.1423   -5.7798    0.9868 H   0  0  0  0  0  0
    6.9958   -5.6104   -1.6664 H   0  0  0  0  0  0
    5.4754   -5.4364   -0.7677 H   0  0  0  0  0  0
    7.2629   -3.2385   -1.8773 H   0  0  0  0  0  0
    5.5223   -3.4183   -2.1176 H   0  0  0  0  0  0
    1.7328   -4.4858    1.4342 H   0  0  0  0  0  0
   -4.0954   -3.6942   -1.2688 H   0  0  0  0  0  0
   -2.3571   -1.7614   -2.0907 H   0  0  0  0  0  0
    0.5687   -1.3745   -1.3199 H   0  0  0  0  0  0
  1  2  1  0  0  0
  1 26  1  0  0  0
  1 27  1  0  0  0
  2  3  2  0  0  0
  2  7  1  0  0  0
  3  4  1  0  0  0
  4  5  2  0  0  0
  4 28  1  0  0  0
  5  6  1  0  0  0
  6 10  1  0  0  0
  6  7  2  0  0  0
  7  8  1  0  0  0
  8  9  2  0  0  0
  8 16  1  0  0  0
  9 10  1  0  0  0
 10 11  1  0  0  0
 11 15  1  0  0  0
 11 12  1  0  0  0
 11 29  1  0  0  0
 12 13  1  0  0  0
 12 30  1  0  0  0
 12 31  1  0  0  0
 13 14  1  0  0  0
 13 32  1  0  0  0
 13 33  1  0  0  0
 14 15  1  0  0  0
 14 34  1  0  0  0
 14 35  1  0  0  0
 15 36  1  0  0  0
 15 37  1  0  0  0
 16 17  2  0  0  0
 16 25  1  0  0  0
 17 18  1  0  0  0
 17 38  1  0  0  0
 18 19  2  0  0  0
 19 20  1  0  0  0
 19 24  1  0  0  0
 20 22  1  0  0  0
 20 21  1  0  0  0
 22 23  2  0  0  0
 22 39  1  0  0  0
 23 24  1  0  0  0
 23 40  1  0  0  0
 24 25  2  0  0  0
 25 41  1  0  0  0
M  END
> <s_m_entry_id>
126

> <s_m_entry_name>
CHEMBL1081312.1

> <s_m_job_name>
mmod_csearch_23

> <s_lp_label>
 _6

> <r_mmod_Potential_Energy-MMFF94s>
59.191219

> <b_mmod_Minimization_Converged-MMFF94s>
1

> <r_mmod_RMS_Derivative-MMFF94s>
0.005807

> <i_mmod_Times_Found-MMFF94s>
401

> <r_mmod_Relative_Potential_Energy-MMFF94s>
0

> <i_mmod_Conformation-MMFF94s>
1

> <i_mmod_Serial_Number-MMFF94s>
6

$$$$
