CHEMBL235157.smi
                    3D
 Structure written by MMmdl.
 43 46  0  0  1  0            999 V2000
    1.8201   -0.1238    0.1755 C   0  0  0  0  0  0
    1.8831    1.2690   -0.1072 O   0  0  0  0  0  0
    2.6491    1.6716   -1.1663 C   0  0  0  0  0  0
    3.5200    0.8284   -1.8601 C   0  0  0  0  0  0
    4.2518    1.2495   -2.9643 C   0  0  0  0  0  0
    5.1020    0.3637   -3.4782 N   0  0  0  0  0  0
    5.8840    0.7692   -4.4964 C   0  0  0  0  0  0
    5.8219    2.0185   -5.1113 C   0  0  0  0  0  0
    6.7077    2.3807   -6.1294 C   0  0  0  0  0  0
    7.7421    1.5677   -6.5610 N   0  0  0  0  0  0
    6.6217    3.5397   -6.7895 N   0  0  0  0  0  0
    5.6189    4.3888   -6.5319 C   0  0  0  0  0  0
    5.5243    5.5635   -7.3081 C   0  0  0  0  0  0
    6.5761    5.8579   -8.3556 C   0  0  0  0  0  0
    4.4483    6.4558   -7.1513 C   0  0  0  0  0  0
    4.2912    7.5840   -7.9432 N   0  0  0  0  0  0
    3.4463    6.1249   -6.2524 C   0  0  0  0  0  0
    3.5484    4.9777   -5.4662 C   0  0  0  0  0  0
    4.6605    4.1076   -5.5269 C   0  0  0  0  0  0
    4.8297    2.9246   -4.6923 C   0  0  0  0  0  0
    4.0978    2.5556   -3.4798 C   0  0  0  0  0  0
    3.2791    3.4189   -2.7089 C   0  0  0  0  0  0
    2.5698    3.0023   -1.5716 C   0  0  0  0  0  0
    1.8254    4.0036   -1.0037 O   0  0  0  0  0  0
    1.6223    3.9307    0.4028 C   0  0  0  0  0  0
    1.4823   -0.6935   -0.6966 H   0  0  0  0  0  0
    1.0843   -0.2688    0.9723 H   0  0  0  0  0  0
    2.7834   -0.4919    0.5429 H   0  0  0  0  0  0
    3.6693   -0.2006   -1.5458 H   0  0  0  0  0  0
    6.5880    0.0102   -4.8295 H   0  0  0  0  0  0
    8.2417    1.9915   -7.3355 H   0  0  0  0  0  0
    8.3152    1.1208   -5.8607 H   0  0  0  0  0  0
    6.1337    5.7956   -9.3553 H   0  0  0  0  0  0
    7.4242    5.1681   -8.3266 H   0  0  0  0  0  0
    6.9908    6.8602   -8.2024 H   0  0  0  0  0  0
    3.5556    8.2460   -7.7356 H   0  0  0  0  0  0
    5.0396    7.8996   -8.5439 H   0  0  0  0  0  0
    2.5602    6.7481   -6.1610 H   0  0  0  0  0  0
    2.6859    4.7477   -4.8497 H   0  0  0  0  0  0
    3.2278    4.4792   -2.9362 H   0  0  0  0  0  0
    0.7555    3.3048    0.6339 H   0  0  0  0  0  0
    2.5178    3.5928    0.9358 H   0  0  0  0  0  0
    1.3951    4.9418    0.7552 H   0  0  0  0  0  0
  1  2  1  0  0  0
  1 26  1  0  0  0
  1 27  1  0  0  0
  1 28  1  0  0  0
  2  3  1  0  0  0
  3  4  2  0  0  0
  3 23  1  0  0  0
  4  5  1  0  0  0
  4 29  1  0  0  0
  5  6  2  0  0  0
  5 21  1  0  0  0
  6  7  1  0  0  0
  7  8  2  0  0  0
  7 30  1  0  0  0
  8  9  1  0  0  0
  8 20  1  0  0  0
  9 11  2  0  0  0
  9 10  1  0  0  0
 10 31  1  0  0  0
 10 32  1  0  0  0
 11 12  1  0  0  0
 12 13  2  0  0  0
 12 19  1  0  0  0
 13 15  1  0  0  0
 13 14  1  0  0  0
 14 33  1  0  0  0
 14 34  1  0  0  0
 14 35  1  0  0  0
 15 17  2  0  0  0
 15 16  1  0  0  0
 16 36  1  0  0  0
 16 37  1  0  0  0
 17 18  1  0  0  0
 17 38  1  0  0  0
 18 19  2  0  0  0
 18 39  1  0  0  0
 19 20  1  0  0  0
 20 21  2  0  0  0
 21 22  1  0  0  0
 22 23  2  0  0  0
 22 40  1  0  0  0
 23 24  1  0  0  0
 24 25  1  0  0  0
 25 41  1  0  0  0
 25 42  1  0  0  0
 25 43  1  0  0  0
M  END
> <s_m_entry_id>
113

> <s_m_entry_name>
CHEMBL235157.1

> <s_m_job_name>
mmod_csearch_22

> <s_lp_label>
 _1

> <r_mmod_Potential_Energy-MMFF94s>
267.984802

> <b_mmod_Minimization_Converged-MMFF94s>
1

> <r_mmod_RMS_Derivative-MMFF94s>
0.011471

> <i_mmod_Times_Found-MMFF94s>
546

> <r_mmod_Relative_Potential_Energy-MMFF94s>
0

> <i_mmod_Conformation-MMFF94s>
1

> <i_mmod_Serial_Number-MMFF94s>
1

$$$$
