CHEMBL1981492.smi
                    3D
 Structure written by MMmdl.
 23 24  0  0  1  0            999 V2000
    1.5702    0.9283   -0.8992 C   0  0  0  0  0  0
    2.9491    1.1657   -0.6136 O   0  0  0  0  0  0
    3.4576    0.3809    0.3833 C   0  0  0  0  0  0
    2.7966   -0.4565    0.9859 O   0  0  0  0  0  0
    4.8446    0.6788    0.6100 C   0  0  0  0  0  0
    5.6920    1.5860    0.0076 C   0  0  0  0  0  0
    5.4162    2.4425   -0.9730 N   0  0  0  0  0  0
    6.9500    1.5659    0.5097 N   0  0  0  0  0  0
    6.9198    0.6418    1.4421 C   0  0  0  0  0  0
    7.9435    0.1722    2.3137 C   0  0  0  0  0  0
    7.6731   -0.8004    3.2039 C   0  0  0  0  0  0
    6.3495   -1.3894    3.2992 C   0  0  0  0  0  0
    5.3784   -0.9515    2.4801 C   0  0  0  0  0  0
    5.6550    0.0603    1.5522 N   0  0  0  0  0  0
    1.2708    1.6040   -1.7052 H   0  0  0  0  0  0
    0.9538    1.1434   -0.0208 H   0  0  0  0  0  0
    1.4201   -0.1016   -1.2379 H   0  0  0  0  0  0
    4.5011    2.5197   -1.4023 H   0  0  0  0  0  0
    6.1382    3.0590   -1.3265 H   0  0  0  0  0  0
    8.9295    0.6161    2.2375 H   0  0  0  0  0  0
    8.4440   -1.1680    3.8746 H   0  0  0  0  0  0
    6.1719   -2.1713    4.0302 H   0  0  0  0  0  0
    4.3760   -1.3588    2.5126 H   0  0  0  0  0  0
  1  2  1  0  0  0
  1 15  1  0  0  0
  1 16  1  0  0  0
  1 17  1  0  0  0
  2  3  1  0  0  0
  3  5  1  0  0  0
  3  4  2  0  0  0
  5 14  1  0  0  0
  5  6  2  0  0  0
  6  8  1  0  0  0
  6  7  1  0  0  0
  7 18  1  0  0  0
  7 19  1  0  0  0
  8  9  2  0  0  0
  9 14  1  0  0  0
  9 10  1  0  0  0
 10 11  2  0  0  0
 10 20  1  0  0  0
 11 12  1  0  0  0
 11 21  1  0  0  0
 12 13  2  0  0  0
 12 22  1  0  0  0
 13 14  1  0  0  0
 13 23  1  0  0  0
M  END
> <s_m_entry_id>
158

> <s_m_entry_name>
CHEMBL1981492.1

> <s_m_job_name>
mmod_csearch_27

> <s_lp_label>
 _6

> <r_mmod_Potential_Energy-MMFF94s>
-241.006622

> <b_mmod_Minimization_Converged-MMFF94s>
1

> <r_mmod_RMS_Derivative-MMFF94s>
0.011886

> <i_mmod_Times_Found-MMFF94s>
531

> <r_mmod_Relative_Potential_Energy-MMFF94s>
0

> <i_mmod_Conformation-MMFF94s>
1

> <i_mmod_Serial_Number-MMFF94s>
6

$$$$
