CHEMBL1870106.smi
                    3D
 Structure written by MMmdl.
 43 46  0  0  1  0            999 V2000
   -2.8142    1.7688   -4.1935 C   0  0  0  0  0  0
   -2.0643    2.6964   -5.1339 C   0  0  0  0  0  0
   -1.6057    3.9112   -4.4819 N   0  0  0  0  0  0
   -0.3785    4.0893   -3.8625 C   0  0  0  0  0  0
   -0.2411    5.3420   -3.4594 N   0  0  0  0  0  0
   -1.4054    5.9833   -3.7896 C   0  0  0  0  0  0
   -1.7746    7.3175   -3.5719 C   0  0  0  0  0  0
   -2.9915    7.7727   -3.9659 N   0  0  0  0  0  0
   -3.8361    6.9074   -4.5740 C   0  0  0  0  0  0
   -3.5596    5.5656   -4.8110 C   0  0  0  0  0  0
   -4.5800    4.7360   -5.4461 C   0  0  0  0  0  0
   -4.4789    4.5019   -6.6449 O   0  0  0  0  0  0
   -5.6001    4.2655   -4.6504 N   0  0  0  0  0  0
   -5.7851    4.4752   -3.2189 C   0  0  0  0  0  0
   -6.8536    3.4643   -2.8212 C   0  0  0  0  0  0
   -7.7102    3.3671   -4.0855 C   0  0  2  0  0  0
   -8.5493    2.1769   -4.0947 N   0  0  0  0  0  0
   -6.6513    3.4200   -5.1961 C   0  0  0  0  0  0
   -2.2943    5.1101   -4.4174 C   0  0  0  0  0  0
    0.6891    3.0721   -3.6369 C   0  0  0  0  0  0
    0.5532    1.7667   -3.8850 N   0  0  0  0  0  0
    1.7739    1.2051   -3.5253 O   0  0  0  0  0  0
    2.6552    2.1670   -3.0490 N   0  0  0  0  0  0
    1.9855    3.3155   -3.1132 C   0  0  0  0  0  0
    2.4719    4.5117   -2.7378 N   0  0  0  0  0  0
   -3.1408    0.8716   -4.7284 H   0  0  0  0  0  0
   -3.6998    2.2546   -3.7750 H   0  0  0  0  0  0
   -2.1878    1.4546   -3.3530 H   0  0  0  0  0  0
   -2.6931    2.9745   -5.9807 H   0  0  0  0  0  0
   -1.2027    2.1936   -5.5814 H   0  0  0  0  0  0
   -1.1170    8.0296   -3.0883 H   0  0  0  0  0  0
   -4.7882    7.3390   -4.8753 H   0  0  0  0  0  0
   -6.1371    5.5022   -3.0729 H   0  0  0  0  0  0
   -4.8485    4.3367   -2.6719 H   0  0  0  0  0  0
   -6.3819    2.4987   -2.5969 H   0  0  0  0  0  0
   -7.4203    3.7797   -1.9400 H   0  0  0  0  0  0
   -8.3474    4.2585   -4.1545 H   0  0  0  0  0  0
   -9.2206    2.2190   -3.3283 H   0  0  0  0  0  0
   -9.0977    2.1460   -4.9543 H   0  0  0  0  0  0
   -6.2116    2.4356   -5.3968 H   0  0  0  0  0  0
   -7.0374    3.8290   -6.1351 H   0  0  0  0  0  0
    3.4089    4.6153   -2.3705 H   0  0  0  0  0  0
    1.8998    5.3526   -2.7955 H   0  0  0  0  0  0
  1  2  1  0  0  0
  1 26  1  0  0  0
  1 27  1  0  0  0
  1 28  1  0  0  0
  2  3  1  0  0  0
  2 29  1  0  0  0
  2 30  1  0  0  0
  3 19  1  0  0  0
  3  4  1  0  0  0
  4  5  2  0  0  0
  4 20  1  0  0  0
  5  6  1  0  0  0
  6 19  1  0  0  0
  6  7  2  0  0  0
  7  8  1  0  0  0
  7 31  1  0  0  0
  8  9  2  0  0  0
  9 10  1  0  0  0
  9 32  1  0  0  0
 10 19  2  0  0  0
 10 11  1  0  0  0
 11 13  1  0  0  0
 11 12  2  0  0  0
 13 18  1  0  0  0
 13 14  1  0  0  0
 14 15  1  0  0  0
 14 33  1  0  0  0
 14 34  1  0  0  0
 15 16  1  0  0  0
 15 35  1  0  0  0
 15 36  1  0  0  0
 16 18  1  0  0  0
 16 17  1  0  0  0
 16 37  1  0  0  0
 17 38  1  0  0  0
 17 39  1  0  0  0
 18 40  1  0  0  0
 18 41  1  0  0  0
 20 24  1  0  0  0
 20 21  2  0  0  0
 21 22  1  0  0  0
 22 23  1  0  0  0
 23 24  2  0  0  0
 24 25  1  0  0  0
 25 42  1  0  0  0
 25 43  1  0  0  0
M  END
> <s_m_entry_id>
10068

> <s_m_job_name>
mmod_csearch_12

> <r_mmod_Potential_Energy-MMFF94s>
227.020645

> <b_mmod_Minimization_Converged-MMFF94s>
1

> <r_mmod_RMS_Derivative-MMFF94s>
0.007452

> <i_mmod_Times_Found-MMFF94s>
102

> <r_mmod_Relative_Potential_Energy-MMFF94s>
0

> <i_mmod_Conformation-MMFF94s>
1

> <s_lp_label>
 _37

> <i_mmod_Serial_Number-MMFF94s>
37

$$$$
