CHEMBL1997924.smi
                    3D
 Structure written by MMmdl.
 44 48  0  0  1  0            999 V2000
    0.4259    3.2101    1.2628 C   0  0  0  0  0  0
   -0.9429    3.1656    1.6897 N   0  0  0  0  0  0
   -1.9671    3.0299    0.7971 C   0  0  0  0  0  0
   -1.6899    2.9342   -0.5104 N   0  0  0  0  0  0
   -2.6819    2.8006   -1.4234 C   0  0  0  0  0  0
   -2.4223    2.7006   -2.7966 N   0  0  0  0  0  0
   -1.2755    2.7038   -3.5011 C   0  0  0  0  0  0
    0.0408    2.8024   -2.9914 C   0  0  0  0  0  0
    0.8550    2.7674   -4.0953 C   0  0  0  0  0  0
    0.0286    2.6409   -5.1679 N   0  0  0  0  0  0
    0.2813    2.5770   -6.1476 H   0  0  0  0  0  0
   -1.2723    2.6035   -4.8358 N   0  0  0  0  0  0
    2.3541    2.8210   -4.1190 C   0  0  0  0  0  0
    3.0365    3.8652   -4.9627 C   0  0  0  0  0  0
    3.0557    3.9830   -3.4670 C   0  0  0  0  0  0
   -3.9917    2.7684   -0.9307 C   0  0  0  0  0  0
   -5.4872    2.6128   -1.7734 S   0  0  0  0  0  0
   -6.3933    2.6837   -0.3267 C   0  0  0  0  0  0
   -5.5845    2.8228    0.7777 C   0  0  0  0  0  0
   -4.2002    2.8724    0.4370 C   0  0  0  0  0  0
   -3.1891    3.0049    1.3224 N   0  0  0  0  0  0
    1.3201    3.3706    2.4695 C   0  0  0  0  0  0
    1.7952    2.2449    3.1583 C   0  0  0  0  0  0
    2.6019    2.3946    4.2873 C   0  0  0  0  0  0
    2.9340    3.6690    4.7439 C   0  0  0  0  0  0
    2.4563    4.7951    4.0758 C   0  0  0  0  0  0
    1.6494    4.6478    2.9465 C   0  0  0  0  0  0
    0.7021    2.2922    0.7283 H   0  0  0  0  0  0
    0.5972    4.0465    0.5731 H   0  0  0  0  0  0
   -1.1979    3.2348    2.6615 H   0  0  0  0  0  0
   -3.2637    2.6130   -3.3529 H   0  0  0  0  0  0
    0.3533    2.8884   -1.9627 H   0  0  0  0  0  0
    2.8395    1.8520   -4.0421 H   0  0  0  0  0  0
    2.4363    4.5832   -5.5101 H   0  0  0  0  0  0
    3.9601    3.5911   -5.4599 H   0  0  0  0  0  0
    3.9882    3.7845   -2.9512 H   0  0  0  0  0  0
    2.4608    4.7684   -3.0139 H   0  0  0  0  0  0
   -7.4729    2.6203   -0.3537 H   0  0  0  0  0  0
   -5.9577    2.8874    1.7916 H   0  0  0  0  0  0
    1.5336    1.2451    2.8180 H   0  0  0  0  0  0
    2.9678    1.5166    4.8132 H   0  0  0  0  0  0
    3.5608    3.7846    5.6242 H   0  0  0  0  0  0
    2.7087    5.7888    4.4366 H   0  0  0  0  0  0
    1.2734    5.5344    2.4400 H   0  0  0  0  0  0
  1 22  1  0  0  0
  1  2  1  0  0  0
  1 28  1  0  0  0
  1 29  1  0  0  0
  2  3  1  0  0  0
  2 30  1  0  0  0
  3  4  2  0  0  0
  3 21  1  0  0  0
  4  5  1  0  0  0
  5 16  2  0  0  0
  5  6  1  0  0  0
  6  7  1  0  0  0
  6 31  1  0  0  0
  7  8  1  0  0  0
  7 12  2  0  0  0
  8  9  2  0  0  0
  8 32  1  0  0  0
  9 10  1  0  0  0
  9 13  1  0  0  0
 10 12  1  0  0  0
 10 11  1  0  0  0
 13 15  1  0  0  0
 13 14  1  0  0  0
 13 33  1  0  0  0
 14 15  1  0  0  0
 14 34  1  0  0  0
 14 35  1  0  0  0
 15 36  1  0  0  0
 15 37  1  0  0  0
 16 17  1  0  0  0
 16 20  1  0  0  0
 17 18  1  0  0  0
 18 19  2  0  0  0
 18 38  1  0  0  0
 19 20  1  0  0  0
 19 39  1  0  0  0
 20 21  2  0  0  0
 22 23  2  0  0  0
 22 27  1  0  0  0
 23 24  1  0  0  0
 23 40  1  0  0  0
 24 25  2  0  0  0
 24 41  1  0  0  0
 25 26  1  0  0  0
 25 42  1  0  0  0
 26 27  2  0  0  0
 26 43  1  0  0  0
 27 44  1  0  0  0
M  END
> <s_m_entry_id>
12650

> <s_m_job_name>
mmod_csearch_16

> <r_mmod_Potential_Energy-MMFF94s>
-436.015442

> <b_mmod_Minimization_Converged-MMFF94s>
1

> <r_mmod_RMS_Derivative-MMFF94s>
0.006179

> <i_mmod_Times_Found-MMFF94s>
358

> <r_mmod_Relative_Potential_Energy-MMFF94s>
0

> <i_mmod_Conformation-MMFF94s>
1

> <s_lp_label>
 _61

> <i_mmod_Serial_Number-MMFF94s>
61

$$$$
