CHEMBL1879463.smi
                    3D
 Structure written by MMmdl.
 59 64  0  0  1  0            999 V2000
   16.5638   -8.8663    4.4532 C   0  0  0  0  0  0
   16.1298   -7.5564    4.0586 N   0  0  0  0  0  0
   14.7966   -7.1740    3.8106 C   0  0  0  0  0  0
   13.8192   -7.9016    3.9035 O   0  0  0  0  0  0
   14.8419   -5.7799    3.4979 N   0  0  0  0  0  0
   13.7000   -4.9581    3.4458 C   0  0  0  0  0  0
   13.6543   -3.7264    4.1059 C   0  0  0  0  0  0
   12.5057   -2.9245    4.0629 C   0  0  0  0  0  0
   11.3573   -3.3316    3.3620 C   0  0  0  0  0  0
   11.3943   -4.6007    2.7559 C   0  0  0  0  0  0
   12.5421   -5.4024    2.8055 C   0  0  0  0  0  0
   10.0825   -2.4662    3.3010 C   0  0  0  0  0  0
    9.5135   -2.4112    1.8652 C   0  0  0  0  0  0
    9.0244   -3.0759    4.2412 C   0  0  0  0  0  0
   10.3154   -1.0567    3.7200 C   0  0  0  0  0  0
   10.4988    0.0429    4.0473 N   0  0  0  0  0  0
   16.1986   -5.3561    3.4709 C   0  0  0  0  0  0
   16.9621   -6.4493    3.8772 C   0  0  0  0  0  0
   18.3163   -6.3270    4.0233 C   0  0  0  0  0  0
   18.9489   -5.1644    3.7591 N   0  0  0  0  0  0
   18.2327   -4.1273    3.2723 C   0  0  0  0  0  0
   18.9217   -2.9736    2.9322 C   0  0  0  0  0  0
   18.2882   -1.8703    2.3493 C   0  0  0  0  0  0
   16.9228   -1.9039    2.0634 C   0  0  0  0  0  0
   16.2174   -3.0665    2.4124 C   0  0  0  0  0  0
   16.8334   -4.1682    3.0634 C   0  0  0  0  0  0
   16.2425   -0.7751    1.4148 C   0  0  0  0  0  0
   16.7104   -0.2072    0.2330 C   0  0  0  0  0  0
   16.1239    0.8262   -0.4204 N   0  0  0  0  0  0
   15.0032    1.3475    0.1066 C   0  0  0  0  0  0
   14.3702    2.4044   -0.5346 C   0  0  0  0  0  0
   13.2024    2.9807   -0.0252 C   0  0  0  0  0  0
   12.6493    2.4953    1.1539 C   0  0  0  0  0  0
   13.2647    1.4366    1.8180 C   0  0  0  0  0  0
   14.4366    0.8573    1.3008 C   0  0  0  0  0  0
   15.0761   -0.2129    1.9449 C   0  0  0  0  0  0
   17.0402   -8.8079    5.4361 H   0  0  0  0  0  0
   17.2784   -9.2473    3.7178 H   0  0  0  0  0  0
   15.7126   -9.5502    4.5105 H   0  0  0  0  0  0
   14.5008   -3.3817    4.6958 H   0  0  0  0  0  0
   12.5374   -1.9815    4.6068 H   0  0  0  0  0  0
   10.5248   -5.0022    2.2393 H   0  0  0  0  0  0
   12.5198   -6.3750    2.3174 H   0  0  0  0  0  0
   10.2653   -2.0457    1.1545 H   0  0  0  0  0  0
    8.6521   -1.7339    1.8051 H   0  0  0  0  0  0
    9.1712   -3.3899    1.5128 H   0  0  0  0  0  0
    9.3858   -3.1156    5.2764 H   0  0  0  0  0  0
    8.7588   -4.0979    3.9470 H   0  0  0  0  0  0
    8.1015   -2.4831    4.2412 H   0  0  0  0  0  0
   18.9475   -7.1421    4.3559 H   0  0  0  0  0  0
   19.9945   -2.9321    3.1123 H   0  0  0  0  0  0
   18.8840   -0.9902    2.1131 H   0  0  0  0  0  0
   15.1712   -3.1287    2.1237 H   0  0  0  0  0  0
   17.6038   -0.5881   -0.2567 H   0  0  0  0  0  0
   14.7989    2.7899   -1.4565 H   0  0  0  0  0  0
   12.7318    3.8072   -0.5511 H   0  0  0  0  0  0
   11.7426    2.9377    1.5595 H   0  0  0  0  0  0
   12.8245    1.0689    2.7425 H   0  0  0  0  0  0
   14.6623   -0.6018    2.8729 H   0  0  0  0  0  0
  1  2  1  0  0  0
  1 37  1  0  0  0
  1 38  1  0  0  0
  1 39  1  0  0  0
  2 18  1  0  0  0
  2  3  1  0  0  0
  3  5  1  0  0  0
  3  4  2  0  0  0
  5 17  1  0  0  0
  5  6  1  0  0  0
  6  7  2  0  0  0
  6 11  1  0  0  0
  7  8  1  0  0  0
  7 40  1  0  0  0
  8  9  2  0  0  0
  8 41  1  0  0  0
  9 10  1  0  0  0
  9 12  1  0  0  0
 10 11  2  0  0  0
 10 42  1  0  0  0
 11 43  1  0  0  0
 12 15  1  0  0  0
 12 14  1  0  0  0
 12 13  1  0  0  0
 13 44  1  0  0  0
 13 45  1  0  0  0
 13 46  1  0  0  0
 14 47  1  0  0  0
 14 48  1  0  0  0
 14 49  1  0  0  0
 15 16  3  0  0  0
 17 18  2  0  0  0
 17 26  1  0  0  0
 18 19  1  0  0  0
 19 20  2  0  0  0
 19 50  1  0  0  0
 20 21  1  0  0  0
 21 22  2  0  0  0
 21 26  1  0  0  0
 22 23  1  0  0  0
 22 51  1  0  0  0
 23 24  2  0  0  0
 23 52  1  0  0  0
 24 25  1  0  0  0
 24 27  1  0  0  0
 25 26  2  0  0  0
 25 53  1  0  0  0
 27 28  2  0  0  0
 27 36  1  0  0  0
 28 29  1  0  0  0
 28 54  1  0  0  0
 29 30  2  0  0  0
 30 31  1  0  0  0
 30 35  1  0  0  0
 31 32  2  0  0  0
 31 55  1  0  0  0
 32 33  1  0  0  0
 32 56  1  0  0  0
 33 34  2  0  0  0
 33 57  1  0  0  0
 34 35  1  0  0  0
 34 58  1  0  0  0
 35 36  2  0  0  0
 36 59  1  0  0  0
M  END
> <s_m_entry_id>
131

> <s_m_entry_name>
CHEMBL1879463.1

> <s_m_job_name>
mmod_csearch_24

> <s_lp_label>
 _3

> <r_mmod_Potential_Energy-MMFF94s>
581.556213

> <b_mmod_Minimization_Converged-MMFF94s>
0

> <r_mmod_RMS_Derivative-MMFF94s>
0.148364

> <i_mmod_Times_Found-MMFF94s>
179

> <r_mmod_Relative_Potential_Energy-MMFF94s>
0

> <i_mmod_Conformation-MMFF94s>
1

> <i_mmod_Serial_Number-MMFF94s>
3

$$$$
