CHEMBL2005449.smi
                    3D
 Structure written by MMmdl.
 37 39  0  0  1  0            999 V2000
   -0.3689   12.9477    9.1841 C   0  0  0  0  0  0
   -0.0393   12.6460    7.7757 C   0  0  0  0  0  0
   -0.7581   12.0463    6.7651 C   0  0  0  0  0  0
    0.0962   12.0415    5.6373 C   0  0  0  0  0  0
   -0.1771   11.5559    4.4165 N   0  0  0  0  0  0
   -1.2952   10.9393    3.8697 C   0  0  0  0  0  0
   -2.3958   10.7195    4.5887 N   0  0  0  0  0  0
   -3.4016   10.1185    3.9459 C   0  0  0  0  0  0
   -4.7979    9.8560    4.9114 Cl  0  0  0  0  0  0
   -3.3789    9.7240    2.6351 C   0  0  0  0  0  0
   -2.2138    9.9848    1.9657 C   0  0  0  0  0  0
   -2.0010    9.6662    0.6544 N   0  0  0  0  0  0
   -2.9385    9.0187   -0.2273 C   0  0  0  0  0  0
   -2.3134    8.8482   -1.5900 C   0  0  0  0  0  0
   -1.5647    7.7010   -1.8913 C   0  0  0  0  0  0
   -0.9675    7.5546   -3.1443 C   0  0  0  0  0  0
   -1.1046    8.5558   -4.1040 C   0  0  0  0  0  0
   -1.8337    9.7069   -3.8110 C   0  0  0  0  0  0
   -2.4318    9.8556   -2.5587 C   0  0  0  0  0  0
   -1.1814   10.5867    2.5769 N   0  0  0  0  0  0
    1.2735   12.6036    5.9294 N   0  0  0  0  0  0
    1.1667   12.9579    7.2181 N   0  0  0  0  0  0
    1.9609   13.4116    7.6569 H   0  0  0  0  0  0
    0.3254   12.4391    9.8604 H   0  0  0  0  0  0
   -1.3833   12.6173    9.4292 H   0  0  0  0  0  0
   -0.3091   14.0244    9.3723 H   0  0  0  0  0  0
   -1.7663   11.6647    6.8389 H   0  0  0  0  0  0
    0.5451   11.6294    3.7149 H   0  0  0  0  0  0
   -4.2289    9.2425    2.1778 H   0  0  0  0  0  0
   -1.0878    9.9222    0.2970 H   0  0  0  0  0  0
   -3.8575    9.6106   -0.3202 H   0  0  0  0  0  0
   -3.2271    8.0360    0.1658 H   0  0  0  0  0  0
   -1.4385    6.9172   -1.1473 H   0  0  0  0  0  0
   -0.3909    6.6613   -3.3704 H   0  0  0  0  0  0
   -0.6373    8.4419   -5.0788 H   0  0  0  0  0  0
   -1.9323   10.4915   -4.5569 H   0  0  0  0  0  0
   -2.9870   10.7652   -2.3393 H   0  0  0  0  0  0
  1  2  1  0  0  0
  1 24  1  0  0  0
  1 25  1  0  0  0
  1 26  1  0  0  0
  2  3  2  0  0  0
  2 22  1  0  0  0
  3  4  1  0  0  0
  3 27  1  0  0  0
  4 21  2  0  0  0
  4  5  1  0  0  0
  5  6  1  0  0  0
  5 28  1  0  0  0
  6  7  2  0  0  0
  6 20  1  0  0  0
  7  8  1  0  0  0
  8 10  2  0  0  0
  8  9  1  0  0  0
 10 11  1  0  0  0
 10 29  1  0  0  0
 11 12  1  0  0  0
 11 20  2  0  0  0
 12 13  1  0  0  0
 12 30  1  0  0  0
 13 14  1  0  0  0
 13 31  1  0  0  0
 13 32  1  0  0  0
 14 15  2  0  0  0
 14 19  1  0  0  0
 15 16  1  0  0  0
 15 33  1  0  0  0
 16 17  2  0  0  0
 16 34  1  0  0  0
 17 18  1  0  0  0
 17 35  1  0  0  0
 18 19  2  0  0  0
 18 36  1  0  0  0
 19 37  1  0  0  0
 21 22  1  0  0  0
 22 23  1  0  0  0
M  END
> <s_m_entry_id>
10242

> <s_m_job_name>
mmod_csearch_14

> <r_mmod_Potential_Energy-MMFF94s>
-604.739685

> <b_mmod_Minimization_Converged-MMFF94s>
1

> <r_mmod_RMS_Derivative-MMFF94s>
0.009896

> <i_mmod_Times_Found-MMFF94s>
263

> <r_mmod_Relative_Potential_Energy-MMFF94s>
0

> <i_mmod_Conformation-MMFF94s>
1

> <s_lp_label>
 _11

> <i_mmod_Serial_Number-MMFF94s>
11

$$$$
