CHEMBL1977138.smi
                    3D
 Structure written by MMmdl.
 42 45  0  0  1  0            999 V2000
    1.6158    0.6440   -0.1496 C   0  0  0  0  0  0
    3.0814    0.7782    0.2732 C   0  0  1  0  0  0
    3.1823    1.7864    1.3134 N   0  0  0  0  0  0
    4.3210    2.4221    1.7203 C   0  0  0  0  0  0
    5.5829    2.2656    1.1540 C   0  0  0  0  0  0
    6.6886    2.9219    1.5869 N   0  0  0  0  0  0
    6.4921    3.7578    2.6312 C   0  0  0  0  0  0
    5.2476    3.9366    3.2219 C   0  0  0  0  0  0
    4.1567    3.2656    2.7622 N   0  0  0  0  0  0
    5.0858    4.8251    4.3248 N   0  0  0  0  0  0
    6.0638    5.5978    4.9163 C   0  0  0  0  0  0
    5.6159    6.3162    5.9195 N   0  0  0  0  0  0
    4.2868    6.0161    6.0034 C   0  0  0  0  0  0
    3.3311    6.5081    6.9067 C   0  0  0  0  0  0
    2.0084    6.0583    6.8126 C   0  0  0  0  0  0
    1.6395    5.1320    5.8332 C   0  0  0  0  0  0
    2.5856    4.6328    4.9236 C   0  0  0  0  0  0
    3.9122    5.0919    5.0282 C   0  0  0  0  0  0
    0.2794    4.6815    5.7532 C   0  0  0  0  0  0
   -0.8196    4.3140    5.6870 N   0  0  0  0  0  0
    3.6138   -0.5587    0.7440 C   0  0  0  0  0  0
    3.3321   -1.0725    2.0207 C   0  0  0  0  0  0
    3.8280   -2.3194    2.4122 C   0  0  0  0  0  0
    4.6053   -3.0729    1.5335 C   0  0  0  0  0  0
    4.8865   -2.5801    0.2615 C   0  0  0  0  0  0
    4.3898   -1.3371   -0.1216 C   0  0  0  0  0  0
    4.6707   -0.8853   -1.3525 F   0  0  0  0  0  0
    1.5029   -0.0918   -0.9534 H   0  0  0  0  0  0
    1.2292    1.6031   -0.5121 H   0  0  0  0  0  0
    0.9784    0.3282    0.6848 H   0  0  0  0  0  0
    3.6392    1.1218   -0.6068 H   0  0  0  0  0  0
    2.3617    2.0220    1.8555 H   0  0  0  0  0  0
    5.7567    1.5980    0.3181 H   0  0  0  0  0  0
    7.3943    4.2619    2.9536 H   0  0  0  0  0  0
    7.0938    5.6130    4.5885 H   0  0  0  0  0  0
    3.6246    7.2275    7.6647 H   0  0  0  0  0  0
    1.2703    6.4417    7.5154 H   0  0  0  0  0  0
    2.2939    3.9127    4.1644 H   0  0  0  0  0  0
    2.7287   -0.5001    2.7224 H   0  0  0  0  0  0
    3.6067   -2.7020    3.4061 H   0  0  0  0  0  0
    4.9902   -4.0422    1.8403 H   0  0  0  0  0  0
    5.4886   -3.1556   -0.4346 H   0  0  0  0  0  0
  1  2  1  0  0  0
  1 28  1  0  0  0
  1 29  1  0  0  0
  1 30  1  0  0  0
  2 21  1  0  0  0
  2  3  1  0  0  0
  2 31  1  0  0  0
  3  4  1  0  0  0
  3 32  1  0  0  0
  4  9  1  0  0  0
  4  5  2  0  0  0
  5  6  1  0  0  0
  5 33  1  0  0  0
  6  7  2  0  0  0
  7  8  1  0  0  0
  7 34  1  0  0  0
  8  9  2  0  0  0
  8 10  1  0  0  0
 10 11  1  0  0  0
 10 18  1  0  0  0
 11 12  2  0  0  0
 11 35  1  0  0  0
 12 13  1  0  0  0
 13 14  2  0  0  0
 13 18  1  0  0  0
 14 15  1  0  0  0
 14 36  1  0  0  0
 15 16  2  0  0  0
 15 37  1  0  0  0
 16 17  1  0  0  0
 16 19  1  0  0  0
 17 18  2  0  0  0
 17 38  1  0  0  0
 19 20  3  0  0  0
 21 22  2  0  0  0
 21 26  1  0  0  0
 22 23  1  0  0  0
 22 39  1  0  0  0
 23 24  2  0  0  0
 23 40  1  0  0  0
 24 25  1  0  0  0
 24 41  1  0  0  0
 25 26  2  0  0  0
 25 42  1  0  0  0
 26 27  1  0  0  0
M  END
> <s_m_entry_id>
10046

> <s_m_job_name>
mmod_csearch_12

> <r_mmod_Potential_Energy-MMFF94s>
397.571625

> <b_mmod_Minimization_Converged-MMFF94s>
0

> <r_mmod_RMS_Derivative-MMFF94s>
0.250776

> <i_mmod_Times_Found-MMFF94s>
202

> <r_mmod_Relative_Potential_Energy-MMFF94s>
0

> <i_mmod_Conformation-MMFF94s>
1

> <s_lp_label>
 _15

> <i_mmod_Serial_Number-MMFF94s>
15

$$$$
