CHEMBL1991674.smi
                    3D
 Structure written by MMmdl.
 42 45  0  0  1  0            999 V2000
    1.5998   -1.9052   -3.4024 O   0  0  0  0  0  0
    1.0938   -0.9108   -2.5145 C   0  0  1  0  0  0
    0.0216   -1.5286   -1.6201 C   0  0  0  0  0  0
    0.6035   -2.5908   -0.6837 C   0  0  0  0  0  0
    1.7804   -2.0672    0.1503 C   0  0  1  0  0  0
    2.8410   -1.3989   -0.7386 C   0  0  0  0  0  0
    2.2576   -0.3560   -1.6969 C   0  0  0  0  0  0
    1.3168   -1.1172    1.1482 N   0  0  0  0  0  0
    0.7271   -1.3905    2.3511 C   0  0  0  0  0  0
    0.5463   -2.6540    2.8532 C   0  0  0  0  0  0
   -0.0673   -2.7275    4.0785 C   0  0  0  0  0  0
   -0.3579   -4.2504    4.8181 Cl  0  0  0  0  0  0
   -0.4882   -1.6820    4.7961 N   0  0  0  0  0  0
   -0.2661   -0.4942    4.2284 C   0  0  0  0  0  0
    0.3252   -0.3075    3.0318 N   0  0  0  0  0  0
   -0.6988    0.6908    4.9586 C   0  0  0  0  0  0
   -0.5190    1.9855    4.4897 C   0  0  0  0  0  0
   -1.0344    2.8560    5.4125 N   0  0  0  0  0  0
   -1.0482    3.8632    5.3493 H   0  0  0  0  0  0
   -1.5458    2.1603    6.4702 C   0  0  0  0  0  0
   -2.1240    2.7348    7.5412 N   0  0  0  0  0  0
   -2.5506    1.8333    8.4543 C   0  0  0  0  0  0
   -2.4305    0.4545    8.3488 C   0  0  0  0  0  0
   -1.8220   -0.0858    7.2153 C   0  0  0  0  0  0
   -1.3565    0.8027    6.2276 C   0  0  0  0  0  0
    0.8679   -2.1773   -3.9832 H   0  0  0  0  0  0
    0.6613   -0.1108   -3.1254 H   0  0  0  0  0  0
   -0.7530   -1.9983   -2.2378 H   0  0  0  0  0  0
   -0.4644   -0.7423   -1.0304 H   0  0  0  0  0  0
   -0.1953   -2.9718   -0.0369 H   0  0  0  0  0  0
    0.9480   -3.4436   -1.2826 H   0  0  0  0  0  0
    2.2708   -2.9097    0.6529 H   0  0  0  0  0  0
    3.6129   -0.9263   -0.1187 H   0  0  0  0  0  0
    3.3460   -2.1756   -1.3272 H   0  0  0  0  0  0
    1.9219    0.5207   -1.1310 H   0  0  0  0  0  0
    3.0562   -0.0200   -2.3692 H   0  0  0  0  0  0
    1.3606   -0.1237    0.9518 H   0  0  0  0  0  0
    0.8596   -3.5449    2.3316 H   0  0  0  0  0  0
   -0.0664    2.3527    3.5776 H   0  0  0  0  0  0
   -3.0222    2.2714    9.3310 H   0  0  0  0  0  0
   -2.8039   -0.1924    9.1351 H   0  0  0  0  0  0
   -1.7124   -1.1599    7.1027 H   0  0  0  0  0  0
  1  2  1  0  0  0
  1 26  1  0  0  0
  2  7  1  0  0  0
  2  3  1  0  0  0
  2 27  1  0  0  0
  3  4  1  0  0  0
  3 28  1  0  0  0
  3 29  1  0  0  0
  4  5  1  0  0  0
  4 30  1  0  0  0
  4 31  1  0  0  0
  5  6  1  0  0  0
  5  8  1  0  0  0
  5 32  1  0  0  0
  6  7  1  0  0  0
  6 33  1  0  0  0
  6 34  1  0  0  0
  7 35  1  0  0  0
  7 36  1  0  0  0
  8  9  1  0  0  0
  8 37  1  0  0  0
  9 15  1  0  0  0
  9 10  2  0  0  0
 10 11  1  0  0  0
 10 38  1  0  0  0
 11 13  2  0  0  0
 11 12  1  0  0  0
 13 14  1  0  0  0
 14 15  2  0  0  0
 14 16  1  0  0  0
 16 25  1  0  0  0
 16 17  2  0  0  0
 17 18  1  0  0  0
 17 39  1  0  0  0
 18 20  1  0  0  0
 18 19  1  0  0  0
 20 25  1  0  0  0
 20 21  2  0  0  0
 21 22  1  0  0  0
 22 23  2  0  0  0
 22 40  1  0  0  0
 23 24  1  0  0  0
 23 41  1  0  0  0
 24 25  2  0  0  0
 24 42  1  0  0  0
M  END
> <s_m_entry_id>
10231

> <s_m_job_name>
mmod_csearch_13

> <r_mmod_Potential_Energy-MMFF94s>
-211.024963

> <b_mmod_Minimization_Converged-MMFF94s>
1

> <r_mmod_RMS_Derivative-MMFF94s>
0.003291

> <i_mmod_Times_Found-MMFF94s>
176

> <r_mmod_Relative_Potential_Energy-MMFF94s>
0

> <i_mmod_Conformation-MMFF94s>
1

> <s_lp_label>
 _100

> <i_mmod_Serial_Number-MMFF94s>
100

$$$$
