CHEMBL1982753.smi
                    3D
 Structure written by MMmdl.
 47 49  0  0  1  0            999 V2000
   12.3230    2.6364    7.5696 N   0  0  0  0  0  0
   11.6122    1.6123    8.3535 C   0  0  1  0  0  0
   11.5461    2.0588    9.8187 C   0  0  0  0  0  0
   10.8036    1.0415   10.6824 C   0  0  0  0  0  0
    9.4125    0.7423   10.1335 C   0  0  0  0  0  0
    9.4677    0.2950    8.6756 C   0  0  0  0  0  0
   10.1889    1.3261    7.7923 C   0  0  2  0  0  0
   10.2689    0.7948    6.4391 N   0  0  0  0  0  0
   10.1115    1.4579    5.2586 C   0  0  0  0  0  0
    9.8251    2.8067    5.1449 C   0  0  0  0  0  0
    9.6866    3.3722    3.8802 C   0  0  0  0  0  0
    9.8336    2.5675    2.7484 C   0  0  0  0  0  0
    9.7066    3.1458    1.3870 C   0  0  0  0  0  0
   10.2973    2.6611    0.4276 O   0  0  0  0  0  0
    8.8885    4.2301    1.2257 N   0  0  0  0  0  0
   10.1479    1.2107    2.9213 C   0  0  0  0  0  0
   10.2965    0.3696    1.7971 N   0  0  0  0  0  0
   10.3628   -1.0256    1.6562 C   0  0  0  0  0  0
   10.7744   -1.5549    0.4206 C   0  0  0  0  0  0
   10.8615   -2.9343    0.2103 C   0  0  0  0  0  0
   10.5321   -3.8128    1.2377 C   0  0  0  0  0  0
   10.1150   -3.3038    2.4643 C   0  0  0  0  0  0
    9.6982   -4.3889    3.7360 Cl  0  0  0  0  0  0
   10.0275   -1.9254    2.6729 C   0  0  0  0  0  0
   10.2706    0.6848    4.1671 N   0  0  0  0  0  0
   12.3366    2.3175    6.5971 H   0  0  0  0  0  0
   13.2987    2.6658    7.8632 H   0  0  0  0  0  0
   12.2028    0.6880    8.2931 H   0  0  0  0  0  0
   11.0399    3.0303    9.8936 H   0  0  0  0  0  0
   12.5582    2.1965   10.2192 H   0  0  0  0  0  0
   11.3844    0.1122   10.7311 H   0  0  0  0  0  0
   10.7212    1.4200   11.7075 H   0  0  0  0  0  0
    8.9378   -0.0372   10.7399 H   0  0  0  0  0  0
    8.7855    1.6385   10.2174 H   0  0  0  0  0  0
    9.9764   -0.6763    8.6139 H   0  0  0  0  0  0
    8.4480    0.1346    8.3041 H   0  0  0  0  0  0
    9.5916    2.2457    7.8193 H   0  0  0  0  0  0
   10.5019   -0.1830    6.3064 H   0  0  0  0  0  0
    9.7278    3.4384    6.0202 H   0  0  0  0  0  0
    9.4974    4.4375    3.8013 H   0  0  0  0  0  0
    8.3040    4.6168    1.9523 H   0  0  0  0  0  0
    8.8024    4.6123    0.2922 H   0  0  0  0  0  0
   10.5302    0.8997    0.9549 H   0  0  0  0  0  0
   11.0379   -0.8860   -0.3965 H   0  0  0  0  0  0
   11.1863   -3.3173   -0.7535 H   0  0  0  0  0  0
   10.5990   -4.8850    1.0778 H   0  0  0  0  0  0
    9.6832   -1.5642    3.6363 H   0  0  0  0  0  0
  1  2  1  0  0  0
  1 26  1  0  0  0
  1 27  1  0  0  0
  2  7  1  0  0  0
  2  3  1  0  0  0
  2 28  1  0  0  0
  3  4  1  0  0  0
  3 29  1  0  0  0
  3 30  1  0  0  0
  4  5  1  0  0  0
  4 31  1  0  0  0
  4 32  1  0  0  0
  5  6  1  0  0  0
  5 33  1  0  0  0
  5 34  1  0  0  0
  6  7  1  0  0  0
  6 35  1  0  0  0
  6 36  1  0  0  0
  7  8  1  0  0  0
  7 37  1  0  0  0
  8  9  1  0  0  0
  8 38  1  0  0  0
  9 25  1  0  0  0
  9 10  2  0  0  0
 10 11  1  0  0  0
 10 39  1  0  0  0
 11 12  2  0  0  0
 11 40  1  0  0  0
 12 16  1  0  0  0
 12 13  1  0  0  0
 13 15  1  0  0  0
 13 14  2  0  0  0
 15 41  1  0  0  0
 15 42  1  0  0  0
 16 25  2  0  0  0
 16 17  1  0  0  0
 17 18  1  0  0  0
 17 43  1  0  0  0
 18 19  2  0  0  0
 18 24  1  0  0  0
 19 20  1  0  0  0
 19 44  1  0  0  0
 20 21  2  0  0  0
 20 45  1  0  0  0
 21 22  1  0  0  0
 21 46  1  0  0  0
 22 24  2  0  0  0
 22 23  1  0  0  0
 24 47  1  0  0  0
M  END
> <s_m_entry_id>
159

> <s_m_entry_name>
CHEMBL1982753.1

> <s_m_job_name>
mmod_csearch_27

> <s_lp_label>
 _7

> <r_mmod_Potential_Energy-MMFF94s>
-55.400364

> <b_mmod_Minimization_Converged-MMFF94s>
1

> <r_mmod_RMS_Derivative-MMFF94s>
0.012438

> <i_mmod_Times_Found-MMFF94s>
89

> <r_mmod_Relative_Potential_Energy-MMFF94s>
0

> <i_mmod_Conformation-MMFF94s>
1

> <i_mmod_Serial_Number-MMFF94s>
7

$$$$
