CHEMBL1421720.smi
                    3D
 Structure written by MMmdl.
 28 30  0  0  1  0            999 V2000
    2.5167   -0.2743    1.2276 O   0  0  0  0  0  0
    3.7231   -0.2583    1.4917 C   0  0  0  0  0  0
    4.2728   -0.0271    2.8963 C   0  0  0  0  0  0
    3.1720    0.0914    3.9126 C   0  0  0  0  0  0
    2.4489    1.2149    4.2649 C   0  0  0  0  0  0
    1.4873    0.9442    5.2806 C   0  0  0  0  0  0
    1.5110   -0.3746    5.6741 C   0  0  0  0  0  0
    2.6870   -1.2778    4.8237 S   0  0  0  0  0  0
    4.5840   -0.4511    0.4482 N   0  0  0  0  0  0
    5.9452   -0.4291    0.5016 C   0  0  0  0  0  0
    6.7212   -0.2144    1.5291 N   0  0  0  0  0  0
    8.0451   -0.2829    1.1248 C   0  0  0  0  0  0
    9.1730   -0.1086    1.9518 C   0  0  0  0  0  0
   10.4571   -0.2050    1.4054 C   0  0  0  0  0  0
   10.6291   -0.4716    0.0505 C   0  0  0  0  0  0
    9.5271   -0.6486   -0.7921 C   0  0  0  0  0  0
    8.2425   -0.5500   -0.2331 C   0  0  0  0  0  0
    6.7052   -0.7152   -0.9950 S   0  0  0  0  0  0
    4.8535    0.9026    2.8963 H   0  0  0  0  0  0
    4.9382   -0.8554    3.1641 H   0  0  0  0  0  0
    2.5954    2.1859    3.8073 H   0  0  0  0  0  0
    0.8098    1.6787    5.6978 H   0  0  0  0  0  0
    0.8925   -0.8548    6.4195 H   0  0  0  0  0  0
    4.1508   -0.6148   -0.4491 H   0  0  0  0  0  0
    9.0365    0.0988    3.0087 H   0  0  0  0  0  0
   11.3253   -0.0704    2.0468 H   0  0  0  0  0  0
   11.6344   -0.5439   -0.3605 H   0  0  0  0  0  0
    9.6640   -0.8568   -1.8490 H   0  0  0  0  0  0
  1  2  2  0  0  0
  2  9  1  0  0  0
  2  3  1  0  0  0
  3  4  1  0  0  0
  3 19  1  0  0  0
  3 20  1  0  0  0
  4  5  2  0  0  0
  4  8  1  0  0  0
  5  6  1  0  0  0
  5 21  1  0  0  0
  6  7  2  0  0  0
  6 22  1  0  0  0
  7  8  1  0  0  0
  7 23  1  0  0  0
  9 10  1  0  0  0
  9 24  1  0  0  0
 10 18  1  0  0  0
 10 11  2  0  0  0
 11 12  1  0  0  0
 12 17  1  0  0  0
 12 13  2  0  0  0
 13 14  1  0  0  0
 13 25  1  0  0  0
 14 15  2  0  0  0
 14 26  1  0  0  0
 15 16  1  0  0  0
 15 27  1  0  0  0
 16 17  2  0  0  0
 16 28  1  0  0  0
 17 18  1  0  0  0
M  END
> <s_m_entry_id>
10067

> <s_m_job_name>
mmod_csearch_12

> <r_mmod_Potential_Energy-MMFF94s>
-25.762915

> <b_mmod_Minimization_Converged-MMFF94s>
1

> <r_mmod_RMS_Derivative-MMFF94s>
0.004502

> <i_mmod_Times_Found-MMFF94s>
200

> <r_mmod_Relative_Potential_Energy-MMFF94s>
0

> <i_mmod_Conformation-MMFF94s>
1

> <s_lp_label>
 _36

> <i_mmod_Serial_Number-MMFF94s>
36

$$$$
