CHEMBL1233887.smi
                    3D
 Structure written by MMmdl.
 35 38  0  0  1  0            999 V2000
    2.8696    1.1461   -0.9764 C   0  0  0  0  0  0
    2.4891   -0.1901   -0.6738 O   0  0  0  0  0  0
    3.1466   -1.1891   -1.3415 C   0  0  0  0  0  0
    4.1671   -1.0149   -2.2717 C   0  0  0  0  0  0
    4.7639   -2.1135   -2.9027 C   0  0  0  0  0  0
    4.3134   -3.3999   -2.5681 C   0  0  0  0  0  0
    3.3011   -3.6116   -1.6251 C   0  0  0  0  0  0
    2.7096   -2.4811   -1.0191 C   0  0  0  0  0  0
    3.1123   -5.0233   -1.5290 C   0  0  0  0  0  0
    3.9770   -5.6256   -2.4149 C   0  0  0  0  0  0
    4.7006   -4.6405   -3.0309 N   0  0  0  0  0  0
    5.7235   -4.8726   -4.0262 C   0  0  0  0  0  0
    2.1888   -5.7719   -0.6570 C   0  0  0  0  0  0
    1.6516   -7.0252   -0.8924 C   0  0  0  0  0  0
    0.8340   -7.3481    0.2145 C   0  0  0  0  0  0
    0.0850   -8.4537    0.4728 N   0  0  0  0  0  0
   -0.5603   -8.3801    1.6615 C   0  0  0  0  0  0
   -0.4728   -7.2992    2.5318 C   0  0  0  0  0  0
    0.2681   -6.1891    2.2954 N   0  0  0  0  0  0
    0.9001   -6.2806    1.1061 C   0  0  0  0  0  0
    1.7268   -5.3388    0.5623 N   0  0  0  0  0  0
    1.9727   -4.4735    1.0176 H   0  0  0  0  0  0
    2.2483    1.8151   -0.3732 H   0  0  0  0  0  0
    2.6852    1.3807   -2.0300 H   0  0  0  0  0  0
    3.9148    1.3293   -0.7064 H   0  0  0  0  0  0
    4.5272   -0.0272   -2.5411 H   0  0  0  0  0  0
    5.5525   -1.9626   -3.6331 H   0  0  0  0  0  0
    1.8980   -2.5969   -0.3082 H   0  0  0  0  0  0
    4.1454   -6.6699   -2.6433 H   0  0  0  0  0  0
    6.6683   -4.4711   -3.6510 H   0  0  0  0  0  0
    5.4276   -4.3693   -4.9501 H   0  0  0  0  0  0
    5.8238   -5.9460   -4.2062 H   0  0  0  0  0  0
    1.8161   -7.6434   -1.7632 H   0  0  0  0  0  0
   -1.1722   -9.2412    1.9091 H   0  0  0  0  0  0
   -1.0153   -7.3017    3.4717 H   0  0  0  0  0  0
  1  2  1  0  0  0
  1 23  1  0  0  0
  1 24  1  0  0  0
  1 25  1  0  0  0
  2  3  1  0  0  0
  3  4  2  0  0  0
  3  8  1  0  0  0
  4  5  1  0  0  0
  4 26  1  0  0  0
  5  6  2  0  0  0
  5 27  1  0  0  0
  6 11  1  0  0  0
  6  7  1  0  0  0
  7  9  1  0  0  0
  7  8  2  0  0  0
  8 28  1  0  0  0
  9 10  2  0  0  0
  9 13  1  0  0  0
 10 11  1  0  0  0
 10 29  1  0  0  0
 11 12  1  0  0  0
 12 30  1  0  0  0
 12 31  1  0  0  0
 12 32  1  0  0  0
 13 21  1  0  0  0
 13 14  2  0  0  0
 14 15  1  0  0  0
 14 33  1  0  0  0
 15 20  1  0  0  0
 15 16  2  0  0  0
 16 17  1  0  0  0
 17 18  2  0  0  0
 17 34  1  0  0  0
 18 19  1  0  0  0
 18 35  1  0  0  0
 19 20  2  0  0  0
 20 21  1  0  0  0
 21 22  1  0  0  0
M  END
> <s_m_entry_id>
9991

> <s_m_job_name>
mmod_csearch_11

> <r_mmod_Potential_Energy-MMFF94s>
245.329483

> <b_mmod_Minimization_Converged-MMFF94s>
1

> <r_mmod_RMS_Derivative-MMFF94s>
0.006793

> <i_mmod_Times_Found-MMFF94s>
134

> <r_mmod_Relative_Potential_Energy-MMFF94s>
0

> <i_mmod_Conformation-MMFF94s>
1

> <s_lp_label>
 _60

> <i_mmod_Serial_Number-MMFF94s>
60

$$$$
