CHEMBL1983715.smi
                    3D
 Structure written by MMmdl.
 58 61  0  0  1  0            999 V2000
   28.0881   13.8761   11.3387 C   0  0  0  0  0  0
   28.3037   13.2508    9.9704 C   0  0  0  0  0  0
   27.6294   14.0310    8.9570 N   0  0  0  0  0  0
   27.6951   13.6672    7.6618 C   0  0  0  0  0  0
   28.3527   12.6307    7.2038 N   0  0  0  0  0  0
   28.2148   12.5303    5.8259 C   0  0  0  0  0  0
   28.8999   11.3982    5.1451 C   0  0  0  0  0  0
   27.4467   13.5264    5.2373 C   0  0  0  0  0  0
   26.8811   14.5902    6.4652 S   0  0  0  0  0  0
   27.0818   13.7321    3.8339 C   0  0  0  0  0  0
   26.9957   14.9782    3.2545 C   0  0  0  0  0  0
   26.6633   14.9878    1.9251 C   0  0  0  0  0  0
   26.4309   13.8729    1.2106 N   0  0  0  0  0  0
   26.5275   12.6971    1.8522 C   0  0  0  0  0  0
   26.2910   11.5766    1.0627 N   0  0  0  0  0  0
   26.1953   10.2097    1.3323 C   0  0  0  0  0  0
   26.1829    9.3080    0.2640 C   0  0  0  0  0  0
   26.1197    7.9211    0.4754 C   0  0  0  0  0  0
   26.0720    7.3671    1.7610 C   0  0  0  0  0  0
   26.0888    8.2814    2.8223 C   0  0  0  0  0  0
   26.1515    9.6697    2.6148 C   0  0  0  0  0  0
   26.0141    5.9987    1.9687 N   0  0  0  0  0  0
   26.3968    5.4011    3.2573 C   0  0  0  0  0  0
   26.8902    3.9510    3.0880 C   0  0  0  0  0  0
   25.9504    3.0919    2.3608 N   0  0  0  0  0  0
   24.9708    3.7779    1.5153 C   0  0  0  0  0  0
   25.5107    5.0913    0.9218 C   0  0  0  0  0  0
   25.9441    1.7098    2.4151 C   0  0  0  0  0  0
   25.1113    1.0253    1.8214 O   0  0  0  0  0  0
   27.0131    1.0534    3.2520 C   0  0  0  0  0  0
   26.8563   12.5946    3.1462 N   0  0  0  0  0  0
   28.5969   13.2903   12.1105 H   0  0  0  0  0  0
   27.0223   13.9183   11.5875 H   0  0  0  0  0  0
   28.4802   14.8983   11.3697 H   0  0  0  0  0  0
   27.9163   12.2252    9.9800 H   0  0  0  0  0  0
   29.3794   13.2064    9.7633 H   0  0  0  0  0  0
   27.0898   14.8400    9.2353 H   0  0  0  0  0  0
   29.6908   10.9874    5.7811 H   0  0  0  0  0  0
   29.3633   11.7201    4.2076 H   0  0  0  0  0  0
   28.1879   10.5960    4.9326 H   0  0  0  0  0  0
   27.1893   15.8962    3.7911 H   0  0  0  0  0  0
   26.5748   15.9194    1.3740 H   0  0  0  0  0  0
   26.1321   11.8698    0.1103 H   0  0  0  0  0  0
   26.2340    9.6713   -0.7595 H   0  0  0  0  0  0
   26.1356    7.2808   -0.4020 H   0  0  0  0  0  0
   26.0275    7.9388    3.8514 H   0  0  0  0  0  0
   26.1417   10.3125    3.4897 H   0  0  0  0  0  0
   25.5311    5.4206    3.9303 H   0  0  0  0  0  0
   27.2096    5.9662    3.7290 H   0  0  0  0  0  0
   27.8251    3.9434    2.5145 H   0  0  0  0  0  0
   27.1020    3.5193    4.0709 H   0  0  0  0  0  0
   24.6365    3.1178    0.7077 H   0  0  0  0  0  0
   24.1007    3.9849    2.1506 H   0  0  0  0  0  0
   26.3258    4.8693    0.2223 H   0  0  0  0  0  0
   24.6931    5.5598    0.3606 H   0  0  0  0  0  0
   27.0125   -0.0241    3.0622 H   0  0  0  0  0  0
   26.8085    1.2212    4.3127 H   0  0  0  0  0  0
   28.0005    1.4438    2.9925 H   0  0  0  0  0  0
  1  2  1  0  0  0
  1 32  1  0  0  0
  1 33  1  0  0  0
  1 34  1  0  0  0
  2  3  1  0  0  0
  2 35  1  0  0  0
  2 36  1  0  0  0
  3  4  1  0  0  0
  3 37  1  0  0  0
  4  9  1  0  0  0
  4  5  2  0  0  0
  5  6  1  0  0  0
  6  8  2  0  0  0
  6  7  1  0  0  0
  7 38  1  0  0  0
  7 39  1  0  0  0
  7 40  1  0  0  0
  8  9  1  0  0  0
  8 10  1  0  0  0
 10 31  1  0  0  0
 10 11  2  0  0  0
 11 12  1  0  0  0
 11 41  1  0  0  0
 12 13  2  0  0  0
 12 42  1  0  0  0
 13 14  1  0  0  0
 14 31  2  0  0  0
 14 15  1  0  0  0
 15 16  1  0  0  0
 15 43  1  0  0  0
 16 17  2  0  0  0
 16 21  1  0  0  0
 17 18  1  0  0  0
 17 44  1  0  0  0
 18 19  2  0  0  0
 18 45  1  0  0  0
 19 20  1  0  0  0
 19 22  1  0  0  0
 20 21  2  0  0  0
 20 46  1  0  0  0
 21 47  1  0  0  0
 22 27  1  0  0  0
 22 23  1  0  0  0
 23 24  1  0  0  0
 23 48  1  0  0  0
 23 49  1  0  0  0
 24 25  1  0  0  0
 24 50  1  0  0  0
 24 51  1  0  0  0
 25 26  1  0  0  0
 25 28  1  0  0  0
 26 27  1  0  0  0
 26 52  1  0  0  0
 26 53  1  0  0  0
 27 54  1  0  0  0
 27 55  1  0  0  0
 28 30  1  0  0  0
 28 29  2  0  0  0
 30 56  1  0  0  0
 30 57  1  0  0  0
 30 58  1  0  0  0
M  END
> <s_m_entry_id>
9945

> <s_m_job_name>
mmod_csearch_11

> <r_mmod_Potential_Energy-MMFF94s>
-156.338989

> <b_mmod_Minimization_Converged-MMFF94s>
0

> <r_mmod_RMS_Derivative-MMFF94s>
0.179016

> <i_mmod_Times_Found-MMFF94s>
7

> <r_mmod_Relative_Potential_Energy-MMFF94s>
0

> <i_mmod_Conformation-MMFF94s>
1

> <s_lp_label>
 _14

> <i_mmod_Serial_Number-MMFF94s>
14

$$$$
