CHEMBL1996646.smi
                    3D
 Structure written by MMmdl.
 57 60  0  0  1  0            999 V2000
   -6.7416   -6.2729   -5.8147 C   0  0  0  0  0  0
   -5.4700   -6.3599   -5.1837 O   0  0  0  0  0  0
   -4.7689   -5.1931   -5.0084 C   0  0  0  0  0  0
   -5.2868   -3.9165   -5.2618 C   0  0  0  0  0  0
   -4.5073   -2.7786   -5.0446 C   0  0  0  0  0  0
   -3.2106   -2.9065   -4.5596 C   0  0  0  0  0  0
   -2.6982   -4.1737   -4.2804 C   0  0  0  0  0  0
   -1.4049   -4.2577   -3.8312 O   0  0  0  0  0  0
   -1.3722   -4.1353   -2.4076 C   0  0  0  0  0  0
   -3.4515   -5.3345   -4.5221 C   0  0  0  0  0  0
   -2.8688   -6.7062   -4.2553 C   0  0  0  0  0  0
   -3.4529   -7.2515   -3.0403 N   0  0  0  0  0  0
   -2.9401   -8.4401   -2.5275 C   0  0  0  0  0  0
   -1.9652   -9.0577   -3.2134 N   0  0  0  0  0  0
   -1.4606  -10.1914   -2.7218 C   0  0  0  0  0  0
   -0.4664  -10.8513   -3.3899 N   0  0  0  0  0  0
    0.1695  -10.3207   -4.5774 C   0  0  0  0  0  0
    1.2435   -9.2878   -4.2072 C   0  0  0  0  0  0
    2.4683   -9.9167   -3.5441 C   0  0  0  0  0  0
    3.0582  -11.0321   -4.4002 C   0  0  0  0  0  0
    2.0152  -12.0898   -4.7437 C   0  0  0  0  0  0
    0.7746  -11.4751   -5.3928 C   0  0  0  0  0  0
   -1.8594  -10.7530   -1.5787 N   0  0  0  0  0  0
   -2.8110  -10.1320   -0.8807 C   0  0  0  0  0  0
   -3.2257  -10.6950    0.3212 C   0  0  0  0  0  0
   -4.2069  -10.0979    1.1184 C   0  0  0  0  0  0
   -4.7860   -8.9061    0.7077 C   0  0  0  0  0  0
   -5.9863   -8.1528    1.6802 Cl  0  0  0  0  0  0
   -4.3929   -8.3212   -0.4912 C   0  0  0  0  0  0
   -3.4044   -8.9371   -1.3018 C   0  0  0  0  0  0
   -7.1202   -7.2914   -5.9436 H   0  0  0  0  0  0
   -6.6624   -5.8191   -6.8082 H   0  0  0  0  0  0
   -7.4549   -5.7307   -5.1856 H   0  0  0  0  0  0
   -6.2968   -3.7714   -5.6309 H   0  0  0  0  0  0
   -4.9129   -1.7925   -5.2556 H   0  0  0  0  0  0
   -2.5976   -2.0239   -4.4007 H   0  0  0  0  0  0
   -1.9986   -4.8912   -1.9219 H   0  0  0  0  0  0
   -1.6771   -3.1311   -2.0941 H   0  0  0  0  0  0
   -0.3394   -4.2925   -2.0827 H   0  0  0  0  0  0
   -1.7775   -6.6441   -4.1687 H   0  0  0  0  0  0
   -3.0737   -7.3605   -5.1126 H   0  0  0  0  0  0
   -4.4574   -7.1434   -2.9824 H   0  0  0  0  0  0
   -0.1067  -11.6568   -2.9029 H   0  0  0  0  0  0
   -0.5838   -9.8405   -5.2153 H   0  0  0  0  0  0
    0.8320   -8.5165   -3.5457 H   0  0  0  0  0  0
    1.5661   -8.7736   -5.1219 H   0  0  0  0  0  0
    3.2281   -9.1453   -3.3741 H   0  0  0  0  0  0
    2.1949  -10.3142   -2.5592 H   0  0  0  0  0  0
    3.4630  -10.6055   -5.3263 H   0  0  0  0  0  0
    3.8969  -11.4991   -3.8715 H   0  0  0  0  0  0
    2.4538  -12.8293   -5.4234 H   0  0  0  0  0  0
    1.7306  -12.6312   -3.8338 H   0  0  0  0  0  0
    1.0535  -11.0953   -6.3844 H   0  0  0  0  0  0
    0.0250  -12.2592   -5.5556 H   0  0  0  0  0  0
   -2.7679  -11.6261    0.6496 H   0  0  0  0  0  0
   -4.5029  -10.5678    2.0524 H   0  0  0  0  0  0
   -4.8419   -7.3799   -0.7968 H   0  0  0  0  0  0
  1  2  1  0  0  0
  1 31  1  0  0  0
  1 32  1  0  0  0
  1 33  1  0  0  0
  2  3  1  0  0  0
  3 10  1  0  0  0
  3  4  2  0  0  0
  4  5  1  0  0  0
  4 34  1  0  0  0
  5  6  2  0  0  0
  5 35  1  0  0  0
  6  7  1  0  0  0
  6 36  1  0  0  0
  7 10  2  0  0  0
  7  8  1  0  0  0
  8  9  1  0  0  0
  9 37  1  0  0  0
  9 38  1  0  0  0
  9 39  1  0  0  0
 10 11  1  0  0  0
 11 12  1  0  0  0
 11 40  1  0  0  0
 11 41  1  0  0  0
 12 13  1  0  0  0
 12 42  1  0  0  0
 13 14  2  0  0  0
 13 30  1  0  0  0
 14 15  1  0  0  0
 15 23  2  0  0  0
 15 16  1  0  0  0
 16 17  1  0  0  0
 16 43  1  0  0  0
 17 22  1  0  0  0
 17 18  1  0  0  0
 17 44  1  0  0  0
 18 19  1  0  0  0
 18 45  1  0  0  0
 18 46  1  0  0  0
 19 20  1  0  0  0
 19 47  1  0  0  0
 19 48  1  0  0  0
 20 21  1  0  0  0
 20 49  1  0  0  0
 20 50  1  0  0  0
 21 22  1  0  0  0
 21 51  1  0  0  0
 21 52  1  0  0  0
 22 53  1  0  0  0
 22 54  1  0  0  0
 23 24  1  0  0  0
 24 25  2  0  0  0
 24 30  1  0  0  0
 25 26  1  0  0  0
 25 55  1  0  0  0
 26 27  2  0  0  0
 26 56  1  0  0  0
 27 29  1  0  0  0
 27 28  1  0  0  0
 29 30  2  0  0  0
 29 57  1  0  0  0
M  END
> <s_m_entry_id>
9978

> <s_m_job_name>
mmod_csearch_11

> <r_mmod_Potential_Energy-MMFF94s>
-292.541626

> <b_mmod_Minimization_Converged-MMFF94s>
1

> <r_mmod_RMS_Derivative-MMFF94s>
0.006966

> <i_mmod_Times_Found-MMFF94s>
21

> <r_mmod_Relative_Potential_Energy-MMFF94s>
0

> <i_mmod_Conformation-MMFF94s>
1

> <s_lp_label>
 _47

> <i_mmod_Serial_Number-MMFF94s>
47

$$$$
