CHEMBL1980391.smi
                    3D
 Structure written by MMmdl.
 39 42  0  0  1  0            999 V2000
    2.6535   -1.6950    2.3681 C   0  0  0  0  0  0
    2.0946   -0.8792    1.3455 O   0  0  0  0  0  0
    2.4808    0.4311    1.3143 C   0  0  0  0  0  0
    1.9226    1.1745    0.2727 C   0  0  0  0  0  0
    2.1994    2.5507    0.0780 C   0  0  0  0  0  0
    1.4639    3.1854   -0.9309 N   0  0  0  0  0  0
    1.2026    4.4881   -1.0994 C   0  0  0  0  0  0
    0.1890    4.9135   -1.8613 N   0  0  0  0  0  0
    0.2364    6.2502   -1.7441 N   0  0  0  0  0  0
   -0.4522    6.7988   -2.2475 H   0  0  0  0  0  0
    1.2540    6.7005   -0.9542 C   0  0  0  0  0  0
    1.5212    8.1359   -0.7275 C   0  0  0  0  0  0
    1.9001    5.5650   -0.5257 C   0  0  0  0  0  0
    3.0759    5.6321    0.2010 N   0  0  0  0  0  0
    3.6019    4.6017    0.7865 C   0  0  0  0  0  0
    4.9294    4.9289    1.4025 C   0  0  0  0  0  0
    4.9410    5.8320    2.4758 C   0  0  0  0  0  0
    6.1481    6.1737    3.0851 C   0  0  0  0  0  0
    7.3432    5.6270    2.6179 C   0  0  0  0  0  0
    7.3356    4.7454    1.5337 C   0  0  0  0  0  0
    6.1305    4.3979    0.9163 C   0  0  0  0  0  0
    6.1954    3.3317   -0.4398 Cl  0  0  0  0  0  0
    3.1038    3.1852    0.9445 C   0  0  0  0  0  0
    3.6306    2.4350    2.0196 C   0  0  0  0  0  0
    3.3269    1.0859    2.1946 C   0  0  0  0  0  0
    3.8848    0.4567    3.2386 F   0  0  0  0  0  0
    2.2668   -2.7097    2.2321 H   0  0  0  0  0  0
    2.3407   -1.3529    3.3598 H   0  0  0  0  0  0
    3.7441   -1.7435    2.2846 H   0  0  0  0  0  0
    1.2275    0.6673   -0.3955 H   0  0  0  0  0  0
    0.9121    2.5717   -1.5174 H   0  0  0  0  0  0
    0.6537    8.7515   -0.9866 H   0  0  0  0  0  0
    2.3680    8.4662   -1.3374 H   0  0  0  0  0  0
    1.7615    8.3237    0.3240 H   0  0  0  0  0  0
    4.0103    6.2709    2.8291 H   0  0  0  0  0  0
    6.1575    6.8732    3.9179 H   0  0  0  0  0  0
    8.2852    5.8979    3.0896 H   0  0  0  0  0  0
    8.2765    4.3402    1.1684 H   0  0  0  0  0  0
    4.2972    2.8749    2.7557 H   0  0  0  0  0  0
  1  2  1  0  0  0
  1 27  1  0  0  0
  1 28  1  0  0  0
  1 29  1  0  0  0
  2  3  1  0  0  0
  3  4  2  0  0  0
  3 25  1  0  0  0
  4  5  1  0  0  0
  4 30  1  0  0  0
  5 23  2  0  0  0
  5  6  1  0  0  0
  6  7  1  0  0  0
  6 31  1  0  0  0
  7  8  2  0  0  0
  7 13  1  0  0  0
  8  9  1  0  0  0
  9 11  1  0  0  0
  9 10  1  0  0  0
 11 13  2  0  0  0
 11 12  1  0  0  0
 12 32  1  0  0  0
 12 33  1  0  0  0
 12 34  1  0  0  0
 13 14  1  0  0  0
 14 15  2  0  0  0
 15 23  1  0  0  0
 15 16  1  0  0  0
 16 17  2  0  0  0
 16 21  1  0  0  0
 17 18  1  0  0  0
 17 35  1  0  0  0
 18 19  2  0  0  0
 18 36  1  0  0  0
 19 20  1  0  0  0
 19 37  1  0  0  0
 20 21  2  0  0  0
 20 38  1  0  0  0
 21 22  1  0  0  0
 23 24  1  0  0  0
 24 25  2  0  0  0
 24 39  1  0  0  0
 25 26  1  0  0  0
M  END
> <s_m_entry_id>
11820

> <s_m_job_name>
mmod_csearch_16

> <r_mmod_Potential_Energy-MMFF94s>
337.40741

> <b_mmod_Minimization_Converged-MMFF94s>
1

> <r_mmod_RMS_Derivative-MMFF94s>
0.009232

> <i_mmod_Times_Found-MMFF94s>
1567

> <r_mmod_Relative_Potential_Energy-MMFF94s>
0

> <i_mmod_Conformation-MMFF94s>
1

> <s_lp_label>
 _31

> <i_mmod_Serial_Number-MMFF94s>
31

$$$$
