CHEMBL1996510.smi
                    3D
 Structure written by MMmdl.
 52 57  0  0  1  0            999 V2000
    6.2296   -0.7546    7.9869 O   0  0  0  0  0  0
    6.2309   -0.5333    6.7901 C   0  0  0  0  0  0
    5.2979   -0.9619    5.9148 N   0  0  0  0  0  0
    5.5945   -0.5619    4.6633 C   0  0  0  0  0  0
    4.9440   -0.7993    3.6628 O   0  0  0  0  0  0
    6.8522    0.2002    4.7303 C   0  0  0  0  0  0
    7.2402    0.2298    6.0188 C   0  0  0  0  0  0
    8.3740    0.8587    6.6035 C   0  0  0  0  0  0
    9.6681    0.7209    6.1443 C   0  0  0  0  0  0
   10.4763    1.5081    6.9210 N   0  0  0  0  0  0
   11.4745    1.6137    6.8035 H   0  0  0  0  0  0
    9.7324    2.1579    7.8788 C   0  0  0  0  0  0
   10.1360    3.0637    8.8673 C   0  0  0  0  0  0
    9.1526    3.5809    9.7145 C   0  0  0  0  0  0
    7.8192    3.2060    9.5762 C   0  0  0  0  0  0
    7.4319    2.3011    8.5809 C   0  0  0  0  0  0
    8.4036    1.7594    7.7124 C   0  0  0  0  0  0
    7.4727    0.8906    3.6012 C   0  0  0  0  0  0
    7.6813    2.2026    3.8393 N   0  0  0  0  0  0
    8.2886    2.9404    2.9080 C   0  0  0  0  0  0
    8.6614    2.4287    1.7288 N   0  0  0  0  0  0
    8.4504    1.1306    1.4861 C   0  0  0  0  0  0
    8.8647    0.6159    0.2634 C   0  0  0  0  0  0
    8.7124   -0.7336   -0.0642 C   0  0  0  0  0  0
    8.1349   -1.6007    0.8511 C   0  0  0  0  0  0
    7.7094   -1.1089    2.0830 C   0  0  0  0  0  0
    7.8533    0.2678    2.4086 C   0  0  0  0  0  0
    8.5471    4.2694    3.1847 N   0  0  0  0  0  0
    9.4556    4.9828    2.2876 C   0  0  0  0  0  0
    9.4010    6.5060    2.5331 C   0  0  0  0  0  0
    9.5796    6.8856    3.9467 N   0  0  0  0  0  0
    8.5515    6.1991    4.7521 C   0  0  0  0  0  0
    8.5587    4.6633    4.5974 C   0  0  0  0  0  0
    4.4893   -1.5039    6.1677 H   0  0  0  0  0  0
   10.0877    0.1486    5.3277 H   0  0  0  0  0  0
   11.1746    3.3580    8.9781 H   0  0  0  0  0  0
    9.4344    4.2838   10.4951 H   0  0  0  0  0  0
    7.0691    3.6151   10.2486 H   0  0  0  0  0  0
    6.3880    2.0155    8.4900 H   0  0  0  0  0  0
    9.3251    1.2876   -0.4584 H   0  0  0  0  0  0
    9.0467   -1.0988   -1.0319 H   0  0  0  0  0  0
    8.0094   -2.6527    0.6077 H   0  0  0  0  0  0
    7.2562   -1.8064    2.7824 H   0  0  0  0  0  0
    9.1940    4.8123    1.2359 H   0  0  0  0  0  0
   10.4815    4.6250    2.4436 H   0  0  0  0  0  0
   10.1834    6.9903    1.9385 H   0  0  0  0  0  0
    8.4404    6.8978    2.1746 H   0  0  0  0  0  0
    9.4497    7.8922    4.0376 H   0  0  0  0  0  0
    8.7061    6.4510    5.8071 H   0  0  0  0  0  0
    7.5626    6.5863    4.4743 H   0  0  0  0  0  0
    9.4541    4.2535    5.0822 H   0  0  0  0  0  0
    7.6803    4.2803    5.1312 H   0  0  0  0  0  0
  1  2  2  0  0  0
  2  3  1  0  0  0
  2  7  1  0  0  0
  3  4  1  0  0  0
  3 34  1  0  0  0
  4  6  1  0  0  0
  4  5  2  0  0  0
  6  7  2  0  0  0
  6 18  1  0  0  0
  7  8  1  0  0  0
  8 17  1  0  0  0
  8  9  2  0  0  0
  9 10  1  0  0  0
  9 35  1  0  0  0
 10 12  1  0  0  0
 10 11  1  0  0  0
 12 17  1  0  0  0
 12 13  2  0  0  0
 13 14  1  0  0  0
 13 36  1  0  0  0
 14 15  2  0  0  0
 14 37  1  0  0  0
 15 16  1  0  0  0
 15 38  1  0  0  0
 16 17  2  0  0  0
 16 39  1  0  0  0
 18 19  2  0  0  0
 18 27  1  0  0  0
 19 20  1  0  0  0
 20 21  2  0  0  0
 20 28  1  0  0  0
 21 22  1  0  0  0
 22 23  2  0  0  0
 22 27  1  0  0  0
 23 24  1  0  0  0
 23 40  1  0  0  0
 24 25  2  0  0  0
 24 41  1  0  0  0
 25 26  1  0  0  0
 25 42  1  0  0  0
 26 27  2  0  0  0
 26 43  1  0  0  0
 28 33  1  0  0  0
 28 29  1  0  0  0
 29 30  1  0  0  0
 29 44  1  0  0  0
 29 45  1  0  0  0
 30 31  1  0  0  0
 30 46  1  0  0  0
 30 47  1  0  0  0
 31 32  1  0  0  0
 31 48  1  0  0  0
 32 33  1  0  0  0
 32 49  1  0  0  0
 32 50  1  0  0  0
 33 51  1  0  0  0
 33 52  1  0  0  0
M  END
> <s_m_entry_id>
184

> <s_m_entry_name>
CHEMBL1996510.1

> <s_m_job_name>
mmod_csearch_27

> <s_lp_label>
 _33

> <r_mmod_Potential_Energy-MMFF94s>
-103.085136

> <b_mmod_Minimization_Converged-MMFF94s>
1

> <r_mmod_RMS_Derivative-MMFF94s>
0.010378

> <i_mmod_Times_Found-MMFF94s>
211

> <r_mmod_Relative_Potential_Energy-MMFF94s>
0

> <i_mmod_Conformation-MMFF94s>
1

> <i_mmod_Serial_Number-MMFF94s>
33

$$$$
