CHEMBL1982711.smi
                    3D
 Structure written by MMmdl.
 29 31  0  0  1  0            999 V2000
    3.8836   -1.9024    0.0008 N   0  0  0  0  0  0
    5.1186   -1.4147    0.3235 C   0  0  0  0  0  0
    6.1342   -2.0040   -0.0244 O   0  0  0  0  0  0
    5.1791   -0.1699    1.1351 C   0  0  0  0  0  0
    6.3341    0.0706    1.8904 C   0  0  0  0  0  0
    6.4386    1.2244    2.6720 C   0  0  0  0  0  0
    5.3912    2.1510    2.6982 C   0  0  0  0  0  0
    4.2454    1.9226    1.9279 C   0  0  0  0  0  0
    4.1380    0.7668    1.1473 C   0  0  0  0  0  0
    5.4975    3.3501    3.5049 C   0  0  0  0  0  0
    6.3819    4.3640    3.1812 C   0  0  0  0  0  0
    6.2373    5.3621    4.1072 N   0  0  0  0  0  0
    6.7439    6.2350    4.1353 H   0  0  0  0  0  0
    5.2834    5.0117    5.0210 C   0  0  0  0  0  0
    4.9177    5.7910    6.0561 N   0  0  0  0  0  0
    3.9636    5.2376    6.8372 C   0  0  0  0  0  0
    3.3834    3.9969    6.6439 C   0  0  0  0  0  0
    3.8086    3.2477    5.5541 C   0  0  0  0  0  0
    3.1704    1.6962    5.2411 Cl  0  0  0  0  0  0
    4.7932    3.7502    4.6861 C   0  0  0  0  0  0
    3.8539   -2.7556   -0.5420 H   0  0  0  0  0  0
    3.0146   -1.5183    0.3386 H   0  0  0  0  0  0
    7.1544   -0.6447    1.8762 H   0  0  0  0  0  0
    7.3379    1.3907    3.2606 H   0  0  0  0  0  0
    3.4325    2.6456    1.9281 H   0  0  0  0  0  0
    3.2484    0.6305    0.5409 H   0  0  0  0  0  0
    7.0916    4.4630    2.3697 H   0  0  0  0  0  0
    3.6592    5.8558    7.6793 H   0  0  0  0  0  0
    2.6270    3.6259    7.3249 H   0  0  0  0  0  0
  1  2  1  0  0  0
  1 21  1  0  0  0
  1 22  1  0  0  0
  2  4  1  0  0  0
  2  3  2  0  0  0
  4  5  2  0  0  0
  4  9  1  0  0  0
  5  6  1  0  0  0
  5 23  1  0  0  0
  6  7  2  0  0  0
  6 24  1  0  0  0
  7  8  1  0  0  0
  7 10  1  0  0  0
  8  9  2  0  0  0
  8 25  1  0  0  0
  9 26  1  0  0  0
 10 20  1  0  0  0
 10 11  2  0  0  0
 11 12  1  0  0  0
 11 27  1  0  0  0
 12 14  1  0  0  0
 12 13  1  0  0  0
 14 20  1  0  0  0
 14 15  2  0  0  0
 15 16  1  0  0  0
 16 17  2  0  0  0
 16 28  1  0  0  0
 17 18  1  0  0  0
 17 29  1  0  0  0
 18 20  2  0  0  0
 18 19  1  0  0  0
M  END
> <s_m_entry_id>
10024

> <s_m_job_name>
mmod_csearch_11

> <r_mmod_Potential_Energy-MMFF94s>
85.103043

> <b_mmod_Minimization_Converged-MMFF94s>
1

> <r_mmod_RMS_Derivative-MMFF94s>
0.003483

> <i_mmod_Times_Found-MMFF94s>
185

> <r_mmod_Relative_Potential_Energy-MMFF94s>
0

> <i_mmod_Conformation-MMFF94s>
1

> <s_lp_label>
 _93

> <i_mmod_Serial_Number-MMFF94s>
93

$$$$
