CHEMBL592030.smi
                    3D
 Structure written by MMmdl.
 53 58  0  0  1  0            999 V2000
   25.3632   -3.0362   -0.7802 N   0  0  0  0  0  0
   24.1947   -2.4166   -1.3952 C   0  0  0  0  0  0
   23.9292   -1.0306   -0.8092 C   0  0  0  0  0  0
   25.0608   -0.0249   -1.0350 C   0  0  0  0  0  0
   25.2322    0.3525   -2.4293 N   0  0  0  0  0  0
   24.4501    1.2817   -3.0747 C   0  0  0  0  0  0
   24.9056    1.4103   -4.3760 C   0  0  0  0  0  0
   24.3150    2.3228   -5.3484 C   0  0  0  0  0  0
   25.1341    2.9857   -6.2735 C   0  0  0  0  0  0
   24.6111    3.8766   -7.2265 C   0  0  0  0  0  0
   25.4611    4.5451   -8.2073 C   0  0  0  0  0  0
   26.3955    3.9786   -9.0500 C   0  0  0  0  0  0
   27.0707    4.9345   -9.8799 C   0  0  0  0  0  0
   28.0691    4.7548  -10.8671 C   0  0  0  0  0  0
   28.5872    5.8545  -11.5577 C   0  0  0  0  0  0
   28.1284    7.1348  -11.2807 C   0  0  0  0  0  0
   27.1452    7.3426  -10.3106 C   0  0  0  0  0  0
   26.6256    6.2314   -9.6184 C   0  0  0  0  0  0
   25.4212    6.2442   -8.3896 S   0  0  0  0  0  0
   23.2215    4.0620   -7.2257 C   0  0  0  0  0  0
   22.3890    4.8156   -8.0136 N   0  0  0  0  0  0
   22.6575    5.4204   -8.7821 H   0  0  0  0  0  0
   21.0857    4.7209   -7.6930 N   0  0  0  0  0  0
   21.0835    3.8674   -6.6666 C   0  0  0  0  0  0
   22.3786    3.4176   -6.3269 C   0  0  0  0  0  0
   22.9254    2.5397   -5.3730 C   0  0  0  0  0  0
   26.0208    0.5283   -4.5033 C   0  0  0  0  0  0
   26.8133    0.2894   -5.5723 N   0  0  0  0  0  0
   27.7770   -0.6073   -5.3604 C   0  0  0  0  0  0
   28.6078   -0.8873   -6.4075 N   0  0  0  0  0  0
   28.0147   -1.2672   -4.2179 N   0  0  0  0  0  0
   27.2232   -1.0305   -3.1525 C   0  0  0  0  0  0
   26.1998   -0.1131   -3.2843 C   0  0  0  0  0  0
   25.1603   -3.2574    0.1955 H   0  0  0  0  0  0
   25.5370   -3.9363   -1.2316 H   0  0  0  0  0  0
   23.3214   -3.0564   -1.2260 H   0  0  0  0  0  0
   24.3402   -2.3553   -2.4783 H   0  0  0  0  0  0
   23.7560   -1.1237    0.2706 H   0  0  0  0  0  0
   22.9980   -0.6423   -1.2403 H   0  0  0  0  0  0
   26.0186   -0.3907   -0.6514 H   0  0  0  0  0  0
   24.8393    0.9006   -0.4890 H   0  0  0  0  0  0
   23.6446    1.7816   -2.5515 H   0  0  0  0  0  0
   26.2108    2.8188   -6.2498 H   0  0  0  0  0  0
   26.5886    2.9125   -9.0821 H   0  0  0  0  0  0
   28.4369    3.7566  -11.0916 H   0  0  0  0  0  0
   29.3538    5.7037  -12.3140 H   0  0  0  0  0  0
   28.5373    7.9855  -11.8211 H   0  0  0  0  0  0
   26.7900    8.3460  -10.0938 H   0  0  0  0  0  0
   20.1400    3.6033   -6.2072 H   0  0  0  0  0  0
   22.2663    2.0249   -4.6808 H   0  0  0  0  0  0
   29.3322   -1.5661   -6.2561 H   0  0  0  0  0  0
   28.4449   -0.4169   -7.2788 H   0  0  0  0  0  0
   27.4329   -1.5831   -2.2456 H   0  0  0  0  0  0
  1  2  1  0  0  0
  1 34  1  0  0  0
  1 35  1  0  0  0
  2  3  1  0  0  0
  2 36  1  0  0  0
  2 37  1  0  0  0
  3  4  1  0  0  0
  3 38  1  0  0  0
  3 39  1  0  0  0
  4  5  1  0  0  0
  4 40  1  0  0  0
  4 41  1  0  0  0
  5  6  1  0  0  0
  5 33  1  0  0  0
  6  7  2  0  0  0
  6 42  1  0  0  0
  7 27  1  0  0  0
  7  8  1  0  0  0
  8  9  2  0  0  0
  8 26  1  0  0  0
  9 10  1  0  0  0
  9 43  1  0  0  0
 10 20  2  0  0  0
 10 11  1  0  0  0
 11 12  2  0  0  0
 11 19  1  0  0  0
 12 13  1  0  0  0
 12 44  1  0  0  0
 13 14  2  0  0  0
 13 18  1  0  0  0
 14 15  1  0  0  0
 14 45  1  0  0  0
 15 16  2  0  0  0
 15 46  1  0  0  0
 16 17  1  0  0  0
 16 47  1  0  0  0
 17 18  2  0  0  0
 17 48  1  0  0  0
 18 19  1  0  0  0
 20 21  1  0  0  0
 20 25  1  0  0  0
 21 23  1  0  0  0
 21 22  1  0  0  0
 23 24  2  0  0  0
 24 25  1  0  0  0
 24 49  1  0  0  0
 25 26  2  0  0  0
 26 50  1  0  0  0
 27 28  2  0  0  0
 27 33  1  0  0  0
 28 29  1  0  0  0
 29 31  2  0  0  0
 29 30  1  0  0  0
 30 51  1  0  0  0
 30 52  1  0  0  0
 31 32  1  0  0  0
 32 33  2  0  0  0
 32 53  1  0  0  0
M  END
> <s_m_entry_id>
10124

> <s_m_job_name>
mmod_csearch_12

> <r_mmod_Potential_Energy-MMFF94s>
-177.728531

> <b_mmod_Minimization_Converged-MMFF94s>
1

> <r_mmod_RMS_Derivative-MMFF94s>
0.00942

> <i_mmod_Times_Found-MMFF94s>
4

> <r_mmod_Relative_Potential_Energy-MMFF94s>
0

> <i_mmod_Conformation-MMFF94s>
1

> <s_lp_label>
 _93

> <i_mmod_Serial_Number-MMFF94s>
93

$$$$
