CHEMBL2001641.smi
                    3D
 Structure written by MMmdl.
 31 33  0  0  1  0            999 V2000
    9.1047   -9.9717  -11.2940 C   0  0  0  0  0  0
    7.8631   -9.3162  -11.9106 C   0  0  0  0  0  0
    8.0387   -9.1972  -13.4271 C   0  0  0  0  0  0
    6.7598  -10.2122  -11.6909 O   0  0  0  0  0  0
    7.5749   -7.9714  -11.3072 C   0  0  0  0  0  0
    6.3636   -7.3390  -11.1154 C   0  0  0  0  0  0
    6.6745   -6.1289  -10.5420 N   0  0  0  0  0  0
    8.0193   -6.0427  -10.3891 N   0  0  0  0  0  0
    8.5726   -7.1522  -10.8570 N   0  0  0  0  0  0
    5.8046   -5.0816  -10.1387 C   0  0  0  0  0  0
    6.3484   -3.9204   -9.5636 C   0  0  0  0  0  0
    5.5336   -2.8595   -9.1487 C   0  0  0  0  0  0
    4.1574   -3.0072   -9.3321 C   0  0  0  0  0  0
    3.1056   -2.1770   -9.0427 N   0  0  0  0  0  0
    3.1425   -1.2563   -8.6205 H   0  0  0  0  0  0
    1.9025   -2.6797   -9.3729 N   0  0  0  0  0  0
    2.1978   -3.8735   -9.8931 C   0  0  0  0  0  0
    3.5855   -4.1401   -9.8971 C   0  0  0  0  0  0
    4.4128   -5.2019  -10.3115 C   0  0  0  0  0  0
    8.9917  -10.0810  -10.2087 H   0  0  0  0  0  0
   10.0127   -9.3885  -11.4829 H   0  0  0  0  0  0
    9.2533  -10.9813  -11.6944 H   0  0  0  0  0  0
    8.8757   -8.5405  -13.6887 H   0  0  0  0  0  0
    7.1327   -8.7956  -13.8971 H   0  0  0  0  0  0
    8.2125  -10.1800  -13.8804 H   0  0  0  0  0  0
    6.6771  -10.3205  -10.7276 H   0  0  0  0  0  0
    5.3577   -7.6511  -11.3455 H   0  0  0  0  0  0
    7.4252   -3.8182   -9.4267 H   0  0  0  0  0  0
    5.9624   -1.9661   -8.7057 H   0  0  0  0  0  0
    1.3923   -4.5028  -10.2488 H   0  0  0  0  0  0
    3.9499   -6.0778  -10.7514 H   0  0  0  0  0  0
  1  2  1  0  0  0
  1 20  1  0  0  0
  1 21  1  0  0  0
  1 22  1  0  0  0
  2  5  1  0  0  0
  2  4  1  0  0  0
  2  3  1  0  0  0
  3 23  1  0  0  0
  3 24  1  0  0  0
  3 25  1  0  0  0
  4 26  1  0  0  0
  5  6  2  0  0  0
  5  9  1  0  0  0
  6  7  1  0  0  0
  6 27  1  0  0  0
  7 10  1  0  0  0
  7  8  1  0  0  0
  8  9  2  0  0  0
 10 11  2  0  0  0
 10 19  1  0  0  0
 11 12  1  0  0  0
 11 28  1  0  0  0
 12 13  2  0  0  0
 12 29  1  0  0  0
 13 14  1  0  0  0
 13 18  1  0  0  0
 14 16  1  0  0  0
 14 15  1  0  0  0
 16 17  2  0  0  0
 17 18  1  0  0  0
 17 30  1  0  0  0
 18 19  2  0  0  0
 19 31  1  0  0  0
M  END
> <s_m_entry_id>
792

> <s_m_job_name>
mmod_csearch_9

> <r_mmod_Potential_Energy-MMFF94s>
241.624924

> <b_mmod_Minimization_Converged-MMFF94s>
1

> <r_mmod_RMS_Derivative-MMFF94s>
0.004997

> <i_mmod_Times_Found-MMFF94s>
304

> <r_mmod_Relative_Potential_Energy-MMFF94s>
0

> <i_mmod_Conformation-MMFF94s>
1

> <s_lp_label>
 _31

> <i_mmod_Serial_Number-MMFF94s>
31

$$$$
