CHEMBL1727312.smi
                    3D
 Structure written by MMmdl.
 26 28  0  0  1  0            999 V2000
    0.8440    1.7344   -0.5071 O   0  0  0  0  0  0
    1.8474    1.1073   -0.8697 C   0  0  0  0  0  0
    3.0389    1.6498   -0.4969 N   0  0  0  0  0  0
    4.3768    1.2996   -0.6771 C   0  0  0  0  0  0
    5.2998    2.1935   -0.0926 C   0  0  0  0  0  0
    6.6753    1.9889   -0.1809 C   0  0  0  0  0  0
    7.1519    0.8811   -0.8587 C   0  0  0  0  0  0
    6.2461   -0.0073   -1.4392 C   0  0  0  0  0  0
    4.8451    0.1805   -1.3622 C   0  0  0  0  0  0
    4.0542   -0.7863   -1.9883 N   0  0  0  0  0  0
    2.6762   -0.9668   -2.1406 C   0  0  0  0  0  0
    2.2888   -2.1202   -2.8717 C   0  0  0  0  0  0
    0.9543   -2.4462   -3.1136 C   0  0  0  0  0  0
   -0.0411   -1.6210   -2.6272 C   0  0  0  0  0  0
    0.3141   -0.4824   -1.9063 C   0  0  0  0  0  0
    1.6670   -0.1373   -1.6519 C   0  0  0  0  0  0
    2.8656    2.4984    0.0279 H   0  0  0  0  0  0
    4.9496    3.0721    0.4458 H   0  0  0  0  0  0
    7.3642    2.6926    0.2782 H   0  0  0  0  0  0
    8.2209    0.7034   -0.9390 H   0  0  0  0  0  0
    6.6515   -0.8692   -1.9656 H   0  0  0  0  0  0
    4.6024   -1.5164   -2.4282 H   0  0  0  0  0  0
    3.0481   -2.7919   -3.2691 H   0  0  0  0  0  0
    0.7015   -3.3393   -3.6784 H   0  0  0  0  0  0
   -1.0882   -1.8525   -2.8019 H   0  0  0  0  0  0
   -0.4905    0.1518   -1.5336 H   0  0  0  0  0  0
  1  2  2  0  0  0
  2  3  1  0  0  0
  2 16  1  0  0  0
  3  4  1  0  0  0
  3 17  1  0  0  0
  4  5  2  0  0  0
  4  9  1  0  0  0
  5  6  1  0  0  0
  5 18  1  0  0  0
  6  7  2  0  0  0
  6 19  1  0  0  0
  7  8  1  0  0  0
  7 20  1  0  0  0
  8  9  2  0  0  0
  8 21  1  0  0  0
  9 10  1  0  0  0
 10 11  1  0  0  0
 10 22  1  0  0  0
 11 12  2  0  0  0
 11 16  1  0  0  0
 12 13  1  0  0  0
 12 23  1  0  0  0
 13 14  2  0  0  0
 13 24  1  0  0  0
 14 15  1  0  0  0
 14 25  1  0  0  0
 15 16  2  0  0  0
 15 26  1  0  0  0
M  END
> <s_m_entry_id>
129

> <s_m_entry_name>
CHEMBL1727312.1

> <s_m_job_name>
mmod_csearch_24

> <s_lp_label>
 _1

> <r_mmod_Potential_Energy-MMFF94s>
239.449585

> <b_mmod_Minimization_Converged-MMFF94s>
1

> <r_mmod_RMS_Derivative-MMFF94s>
0.006169

> <i_mmod_Times_Found-MMFF94s>
2000

> <r_mmod_Relative_Potential_Energy-MMFF94s>
0

> <i_mmod_Conformation-MMFF94s>
1

> <i_mmod_Serial_Number-MMFF94s>
1

$$$$
