CHEMBL1988076.smi
                    3D
 Structure written by MMmdl.
 59 64  0  0  1  0            999 V2000
   -0.9005   -7.5390   -0.0683 C   0  0  0  0  0  0
   -1.5689   -7.4768    1.2802 C   0  0  0  0  0  0
   -0.9065   -8.0530    2.3802 C   0  0  0  0  0  0
   -1.4706   -8.0162    3.6521 C   0  0  0  0  0  0
   -2.7024   -7.4043    3.8381 C   0  0  0  0  0  0
   -3.3697   -6.8312    2.7519 C   0  0  0  0  0  0
   -2.8307   -6.8596    1.4564 C   0  0  0  0  0  0
   -3.4756   -6.2619    0.3635 N   0  0  0  0  0  0
   -4.5551   -5.3941    0.2351 C   0  0  0  0  0  0
   -4.9111   -5.1108   -1.0281 N   0  0  0  0  0  0
   -5.9291   -4.2492   -1.2066 C   0  0  0  0  0  0
   -6.6026   -3.6515   -0.1739 C   0  0  0  0  0  0
   -6.1729   -3.9991    1.0845 C   0  0  0  0  0  0
   -5.1587   -4.8548    1.3019 N   0  0  0  0  0  0
   -6.7700   -3.4575    2.2955 C   0  0  0  0  0  0
   -8.0896   -3.1849    2.6782 C   0  0  0  0  0  0
   -8.1576   -2.5555    3.9117 N   0  0  0  0  0  0
   -6.9137   -2.5176    4.2908 C   0  0  0  0  0  0
   -6.0934   -1.9245    5.7023 S   0  0  0  0  0  0
   -4.5598   -2.4318    4.9794 C   0  0  0  0  0  0
   -4.7127   -2.9924    3.7679 C   0  0  0  0  0  0
   -6.0394   -3.0416    3.3868 N   0  0  0  0  0  0
   -9.2955   -3.4733    1.9197 C   0  0  0  0  0  0
   -9.4842   -4.7023    1.2798 C   0  0  0  0  0  0
  -10.6514   -4.9398    0.5550 C   0  0  0  0  0  0
  -11.6441   -3.9590    0.4758 C   0  0  0  0  0  0
  -11.4847   -2.7366    1.1293 C   0  0  0  0  0  0
  -12.4501   -1.7081    1.1245 N   0  0  0  0  0  0
  -13.6381   -1.6754    0.4170 C   0  0  0  0  0  0
  -14.0152   -2.4855   -0.4212 O   0  0  0  0  0  0
  -14.4988   -0.4903    0.6949 C   0  0  0  0  0  0
  -14.5996    0.0630    1.9787 C   0  0  0  0  0  0
  -15.4183    1.1736    2.1962 C   0  0  0  0  0  0
  -16.1423    1.7268    1.1397 C   0  0  0  0  0  0
  -16.0591    1.1671   -0.1351 C   0  0  0  0  0  0
  -15.2433    0.0568   -0.3574 C   0  0  0  0  0  0
  -10.3089   -2.5056    1.8553 C   0  0  0  0  0  0
   -0.7643   -6.5308   -0.4728 H   0  0  0  0  0  0
   -1.5023   -8.1353   -0.7616 H   0  0  0  0  0  0
    0.0901   -8.0022   -0.0078 H   0  0  0  0  0  0
    0.0607   -8.5337    2.2494 H   0  0  0  0  0  0
   -0.9502   -8.4647    4.4939 H   0  0  0  0  0  0
   -3.1537   -7.3736    4.8263 H   0  0  0  0  0  0
   -4.3389   -6.3799    2.9411 H   0  0  0  0  0  0
   -3.1429   -6.5015   -0.5577 H   0  0  0  0  0  0
   -6.1907   -4.0459   -2.2410 H   0  0  0  0  0  0
   -7.4095   -2.9545   -0.3530 H   0  0  0  0  0  0
   -3.6169   -2.2878    5.4902 H   0  0  0  0  0  0
   -3.9345   -3.3797    3.1275 H   0  0  0  0  0  0
   -8.7388   -5.4912    1.3508 H   0  0  0  0  0  0
  -10.7996   -5.8960    0.0586 H   0  0  0  0  0  0
  -12.5427   -4.1900   -0.0884 H   0  0  0  0  0  0
  -12.2211   -0.8916    1.6766 H   0  0  0  0  0  0
  -14.0748   -0.3756    2.8231 H   0  0  0  0  0  0
  -15.5022    1.6013    3.1925 H   0  0  0  0  0  0
  -16.7826    2.5888    1.3122 H   0  0  0  0  0  0
  -16.6335    1.5909   -0.9552 H   0  0  0  0  0  0
  -15.1877   -0.3821   -1.3518 H   0  0  0  0  0  0
  -10.1653   -1.5648    2.3833 H   0  0  0  0  0  0
  1  2  1  0  0  0
  1 38  1  0  0  0
  1 39  1  0  0  0
  1 40  1  0  0  0
  2  3  2  0  0  0
  2  7  1  0  0  0
  3  4  1  0  0  0
  3 41  1  0  0  0
  4  5  2  0  0  0
  4 42  1  0  0  0
  5  6  1  0  0  0
  5 43  1  0  0  0
  6  7  2  0  0  0
  6 44  1  0  0  0
  7  8  1  0  0  0
  8  9  1  0  0  0
  8 45  1  0  0  0
  9 10  2  0  0  0
  9 14  1  0  0  0
 10 11  1  0  0  0
 11 12  2  0  0  0
 11 46  1  0  0  0
 12 13  1  0  0  0
 12 47  1  0  0  0
 13 14  2  0  0  0
 13 15  1  0  0  0
 15 16  2  0  0  0
 15 22  1  0  0  0
 16 17  1  0  0  0
 16 23  1  0  0  0
 17 18  2  0  0  0
 18 19  1  0  0  0
 18 22  1  0  0  0
 19 20  1  0  0  0
 20 21  2  0  0  0
 20 48  1  0  0  0
 21 22  1  0  0  0
 21 49  1  0  0  0
 23 24  2  0  0  0
 23 37  1  0  0  0
 24 25  1  0  0  0
 24 50  1  0  0  0
 25 26  2  0  0  0
 25 51  1  0  0  0
 26 27  1  0  0  0
 26 52  1  0  0  0
 27 37  2  0  0  0
 27 28  1  0  0  0
 28 29  1  0  0  0
 28 53  1  0  0  0
 29 31  1  0  0  0
 29 30  2  0  0  0
 31 32  2  0  0  0
 31 36  1  0  0  0
 32 33  1  0  0  0
 32 54  1  0  0  0
 33 34  2  0  0  0
 33 55  1  0  0  0
 34 35  1  0  0  0
 34 56  1  0  0  0
 35 36  2  0  0  0
 35 57  1  0  0  0
 36 58  1  0  0  0
 37 59  1  0  0  0
M  END
> <s_m_entry_id>
166

> <s_m_entry_name>
CHEMBL1988076.1

> <s_m_job_name>
mmod_csearch_27

> <s_lp_label>
 _14

> <r_mmod_Potential_Energy-MMFF94s>
-12.212196

> <b_mmod_Minimization_Converged-MMFF94s>
1

> <r_mmod_RMS_Derivative-MMFF94s>
0.01112

> <i_mmod_Times_Found-MMFF94s>
101

> <r_mmod_Relative_Potential_Energy-MMFF94s>
0

> <i_mmod_Conformation-MMFF94s>
1

> <i_mmod_Serial_Number-MMFF94s>
14

$$$$
