CHEMBL1975212.smi
                    3D
 Structure written by MMmdl.
 25 27  0  0  1  0            999 V2000
    1.1215   -0.0994    1.1270 N   0  0  0  0  0  0
    2.4496   -0.1285    0.7748 C   0  0  0  0  0  0
    2.7745   -0.9280   -0.2589 N   0  0  0  0  0  0
    4.0582   -0.9922   -0.6425 C   0  0  0  0  0  0
    5.0997   -0.3442   -0.1167 N   0  0  0  0  0  0
    4.7403    0.4432    0.9108 C   0  0  0  0  0  0
    5.9142    1.3655    1.7329 S   0  0  0  0  0  0
    4.7445    2.0177    2.7926 C   0  0  0  0  0  0
    3.4761    1.5401    2.5249 C   0  0  0  0  0  0
    2.3496    1.9846    3.3259 C   0  0  0  0  0  0
    1.9809    1.2720    4.4719 C   0  0  0  0  0  0
    0.8827    1.6864    5.2268 C   0  0  0  0  0  0
    0.1522    2.8096    4.8383 C   0  0  0  0  0  0
    0.5171    3.5208    3.6950 C   0  0  0  0  0  0
    1.6147    3.1097    2.9373 C   0  0  0  0  0  0
    3.4599    0.6119    1.4187 C   0  0  0  0  0  0
    0.7788    0.4672    1.8862 H   0  0  0  0  0  0
    0.4949   -0.6766    0.5865 H   0  0  0  0  0  0
    4.2737   -1.6491   -1.4795 H   0  0  0  0  0  0
    5.0444    2.7194    3.5600 H   0  0  0  0  0  0
    2.5415    0.3921    4.7801 H   0  0  0  0  0  0
    0.5966    1.1336    6.1182 H   0  0  0  0  0  0
   -0.7024    3.1320    5.4283 H   0  0  0  0  0  0
   -0.0535    4.3959    3.3940 H   0  0  0  0  0  0
    1.8887    3.6678    2.0446 H   0  0  0  0  0  0
  1  2  1  0  0  0
  1 17  1  0  0  0
  1 18  1  0  0  0
  2  3  2  0  0  0
  2 16  1  0  0  0
  3  4  1  0  0  0
  4  5  2  0  0  0
  4 19  1  0  0  0
  5  6  1  0  0  0
  6  7  1  0  0  0
  6 16  2  0  0  0
  7  8  1  0  0  0
  8  9  2  0  0  0
  8 20  1  0  0  0
  9 16  1  0  0  0
  9 10  1  0  0  0
 10 11  2  0  0  0
 10 15  1  0  0  0
 11 12  1  0  0  0
 11 21  1  0  0  0
 12 13  2  0  0  0
 12 22  1  0  0  0
 13 14  1  0  0  0
 13 23  1  0  0  0
 14 15  2  0  0  0
 14 24  1  0  0  0
 15 25  1  0  0  0
M  END
> <s_m_entry_id>
749

> <s_m_job_name>
mmod_csearch_9

> <r_mmod_Potential_Energy-MMFF94s>
-73.631416

> <b_mmod_Minimization_Converged-MMFF94s>
1

> <r_mmod_RMS_Derivative-MMFF94s>
0.002296

> <i_mmod_Times_Found-MMFF94s>
1999

> <r_mmod_Relative_Potential_Energy-MMFF94s>
0

> <i_mmod_Conformation-MMFF94s>
1

> <s_lp_label>
 _13

> <i_mmod_Serial_Number-MMFF94s>
13

$$$$
