CHEMBL1997611.smi
                    3D
 Structure written by MMmdl.
 42 44  0  0  1  0            999 V2000
    3.8719   -0.6121   -0.3486 C   0  0  0  0  0  0
    5.2164    0.0587   -0.1449 C   0  0  0  0  0  0
    5.1401    1.3835   -0.6776 O   0  0  0  0  0  0
    6.2915    2.1098   -0.5618 C   0  0  0  0  0  0
    7.3187    1.6814   -0.0458 O   0  0  0  0  0  0
    6.1549    3.4648   -1.1177 C   0  0  0  0  0  0
    4.9636    3.9376   -1.6296 N   0  0  0  0  0  0
    5.2032    5.1667   -2.0285 C   0  0  0  0  0  0
    4.2495    6.0318   -2.6868 C   0  0  0  0  0  0
    3.0953    5.7386   -2.9912 O   0  0  0  0  0  0
    4.7247    7.2922   -2.9868 N   0  0  0  0  0  0
    6.0089    7.7426   -2.6513 C   0  0  0  0  0  0
    6.3522    9.0571   -2.9606 C   0  0  0  0  0  0
    7.6171    9.5523   -2.5979 C   0  0  0  0  0  0
    8.5447    8.7382   -1.9090 C   0  0  0  0  0  0
    9.8170    9.2391   -1.5211 N   0  0  0  0  0  0
   10.8680    8.5631   -0.9269 C   0  0  0  0  0  0
   10.9106    7.3691   -0.6558 O   0  0  0  0  0  0
   12.0409    9.4696   -0.6494 C   0  0  0  0  0  0
    8.1603    7.4166   -1.6098 C   0  0  0  0  0  0
    6.9168    6.8924   -1.9963 C   0  0  0  0  0  0
    6.4953    5.5659   -1.7408 N   0  0  0  0  0  0
    7.1463    4.4399   -1.2430 C   0  0  0  0  0  0
    8.6003    4.3334   -0.9459 C   0  0  0  0  0  0
    7.9246   10.9453   -2.9658 N   0  3  0  0  0  0
    8.9421   11.4665   -2.4839 O   0  0  0  0  0  0
    7.1480   11.5215   -3.7396 O   0  5  0  0  0  0
    3.8813   -1.6324    0.0447 H   0  0  0  0  0  0
    3.6150   -0.6454   -1.4126 H   0  0  0  0  0  0
    3.0792   -0.0469    0.1527 H   0  0  0  0  0  0
    5.9945   -0.5075   -0.6692 H   0  0  0  0  0  0
    5.4489    0.1021    0.9250 H   0  0  0  0  0  0
    4.0574    7.8943   -3.4536 H   0  0  0  0  0  0
    5.6330    9.6924   -3.4750 H   0  0  0  0  0  0
    9.9866   10.2271   -1.7209 H   0  0  0  0  0  0
   12.7782    8.9422   -0.0378 H   0  0  0  0  0  0
   11.7098   10.3605   -0.1079 H   0  0  0  0  0  0
   12.5044    9.7673   -1.5939 H   0  0  0  0  0  0
    8.8336    6.7997   -1.0337 H   0  0  0  0  0  0
    8.9265    3.2924   -0.8776 H   0  0  0  0  0  0
    8.8374    4.8154    0.0072 H   0  0  0  0  0  0
    9.2008    4.7751   -1.7469 H   0  0  0  0  0  0
  1  2  1  0  0  0
  1 28  1  0  0  0
  1 29  1  0  0  0
  1 30  1  0  0  0
  2  3  1  0  0  0
  2 31  1  0  0  0
  2 32  1  0  0  0
  3  4  1  0  0  0
  4  6  1  0  0  0
  4  5  2  0  0  0
  6  7  1  0  0  0
  6 23  2  0  0  0
  7  8  2  0  0  0
  8  9  1  0  0  0
  8 22  1  0  0  0
  9 11  1  0  0  0
  9 10  2  0  0  0
 11 12  1  0  0  0
 11 33  1  0  0  0
 12 13  2  0  0  0
 12 21  1  0  0  0
 13 14  1  0  0  0
 13 34  1  0  0  0
 14 15  2  0  0  0
 14 25  1  0  0  0
 15 20  1  0  0  0
 15 16  1  0  0  0
 16 17  1  0  0  0
 16 35  1  0  0  0
 17 19  1  0  0  0
 17 18  2  0  0  0
 19 36  1  0  0  0
 19 37  1  0  0  0
 19 38  1  0  0  0
 20 21  2  0  0  0
 20 39  1  0  0  0
 21 22  1  0  0  0
 22 23  1  0  0  0
 23 24  1  0  0  0
 24 40  1  0  0  0
 24 41  1  0  0  0
 24 42  1  0  0  0
 25 27  1  0  0  0
 25 26  2  0  0  0
M  CHG  2  25   1  27  -1
M  END
> <s_m_entry_id>
190

> <s_m_entry_name>
CHEMBL1997611.1

> <s_m_job_name>
mmod_csearch_27

> <s_lp_label>
 _39

> <r_mmod_Potential_Energy-MMFF94s>
323.38559

> <b_mmod_Minimization_Converged-MMFF94s>
1

> <r_mmod_RMS_Derivative-MMFF94s>
0.013695

> <i_mmod_Times_Found-MMFF94s>
322

> <r_mmod_Relative_Potential_Energy-MMFF94s>
0

> <i_mmod_Conformation-MMFF94s>
1

> <i_mmod_Serial_Number-MMFF94s>
39

$$$$
