CHEMBL1978167.smi
                    3D
 Structure written by MMmdl.
 31 34  0  0  1  0            999 V2000
    1.0742    0.1145    0.0992 C   0  0  0  0  0  0
    2.5183    0.0803    0.0336 N   0  0  0  0  0  0
    3.3284    1.1784    0.1428 C   0  0  0  0  0  0
    4.6323    0.7538    0.0223 C   0  0  0  0  0  0
    5.7906    1.6642    0.0566 C   0  0  0  0  0  0
    5.8794    2.8770    0.7161 C   0  0  0  0  0  0
    7.1672    3.4014    0.4615 C   0  0  0  0  0  0
    7.7509    4.5557    0.8786 N   0  0  0  0  0  0
    9.0130    4.7051    0.4123 C   0  0  0  0  0  0
    9.9540    6.2745    0.9157 Br  0  0  0  0  0  0
    9.6495    3.7762   -0.4098 C   0  0  0  0  0  0
    9.0859    2.6158   -0.8404 N   0  0  0  0  0  0
    7.8309    2.4929   -0.3594 C   0  0  0  0  0  0
    6.9795    1.4514   -0.5972 N   0  0  0  0  0  0
    7.1964    0.6664   -1.1918 H   0  0  0  0  0  0
    4.6189   -0.6641   -0.1436 C   0  0  0  0  0  0
    5.6097   -1.6619   -0.2796 C   0  0  0  0  0  0
    5.2344   -3.0014   -0.4334 C   0  0  0  0  0  0
    3.8920   -3.3628   -0.4474 C   0  0  0  0  0  0
    2.8893   -2.4014   -0.3002 C   0  0  0  0  0  0
    3.2751   -1.0597   -0.1447 C   0  0  0  0  0  0
    0.7378    1.1437    0.2480 H   0  0  0  0  0  0
    0.7514   -0.5048    0.9400 H   0  0  0  0  0  0
    0.6762   -0.2717   -0.8426 H   0  0  0  0  0  0
    2.9136    2.1684    0.2802 H   0  0  0  0  0  0
    5.1122    3.3372    1.3227 H   0  0  0  0  0  0
   10.6641    3.9409   -0.7593 H   0  0  0  0  0  0
    6.6640   -1.4078   -0.2490 H   0  0  0  0  0  0
    6.0009   -3.7657   -0.5361 H   0  0  0  0  0  0
    3.6174   -4.4085   -0.5661 H   0  0  0  0  0  0
    1.8443   -2.6941   -0.3023 H   0  0  0  0  0  0
  1  2  1  0  0  0
  1 22  1  0  0  0
  1 23  1  0  0  0
  1 24  1  0  0  0
  2 21  1  0  0  0
  2  3  1  0  0  0
  3  4  2  0  0  0
  3 25  1  0  0  0
  4 16  1  0  0  0
  4  5  1  0  0  0
  5 14  1  0  0  0
  5  6  2  0  0  0
  6  7  1  0  0  0
  6 26  1  0  0  0
  7 13  1  0  0  0
  7  8  2  0  0  0
  8  9  1  0  0  0
  9 11  2  0  0  0
  9 10  1  0  0  0
 11 12  1  0  0  0
 11 27  1  0  0  0
 12 13  2  0  0  0
 13 14  1  0  0  0
 14 15  1  0  0  0
 16 21  1  0  0  0
 16 17  2  0  0  0
 17 18  1  0  0  0
 17 28  1  0  0  0
 18 19  2  0  0  0
 18 29  1  0  0  0
 19 20  1  0  0  0
 19 30  1  0  0  0
 20 21  2  0  0  0
 20 31  1  0  0  0
M  END
> <s_m_entry_id>
9839

> <s_m_job_name>
mmod_csearch_10

> <r_mmod_Potential_Energy-MMFF94s>
249.372406

> <b_mmod_Minimization_Converged-MMFF94s>
1

> <r_mmod_RMS_Derivative-MMFF94s>
0.008461

> <i_mmod_Times_Found-MMFF94s>
244

> <r_mmod_Relative_Potential_Energy-MMFF94s>
0

> <i_mmod_Conformation-MMFF94s>
1

> <s_lp_label>
 _8

> <i_mmod_Serial_Number-MMFF94s>
8

$$$$
