CHEMBL1968130.smi
                    3D
 Structure written by MMmdl.
 15 16  0  0  1  0            999 V2000
    0.9758    0.0663    0.0632 N   0  0  0  0  0  0
    2.3180    0.0763    0.0620 C   0  0  0  0  0  0
    3.1037    1.1357    0.0612 N   0  0  0  0  0  0
    4.4178    0.7143    0.0600 N   0  0  0  0  0  0
    4.3864   -0.5939    0.0600 C   0  0  0  0  0  0
    5.4746   -1.5207    0.0590 C   0  0  0  0  0  0
    5.2662   -2.8113    0.0591 N   0  0  0  0  0  0
    3.9457   -3.2469    0.0604 C   0  0  0  0  0  0
    2.8674   -2.4338    0.0614 C   0  0  0  0  0  0
    1.2756   -3.0935    0.0629 Cl  0  0  0  0  0  0
    3.0989   -1.0631    0.0612 N   0  0  0  0  0  0
    0.4105   -0.7759    0.0638 H   0  0  0  0  0  0
    0.4701    0.9467    0.0637 H   0  0  0  0  0  0
    6.5067   -1.1353    0.0580 H   0  0  0  0  0  0
    3.8222   -4.3282    0.0605 H   0  0  0  0  0  0
  1  2  1  0  0  0
  1 12  1  0  0  0
  1 13  1  0  0  0
  2 11  1  0  0  0
  2  3  2  0  0  0
  3  4  1  0  0  0
  4  5  2  0  0  0
  5 11  1  0  0  0
  5  6  1  0  0  0
  6  7  2  0  0  0
  6 14  1  0  0  0
  7  8  1  0  0  0
  8  9  2  0  0  0
  8 15  1  0  0  0
  9 11  1  0  0  0
  9 10  1  0  0  0
M  END
> <s_m_entry_id>
758

> <s_m_job_name>
mmod_csearch_9

> <r_mmod_Potential_Energy-MMFF94s>
113.559868

> <b_mmod_Minimization_Converged-MMFF94s>
1

> <r_mmod_RMS_Derivative-MMFF94s>
0.001131

> <i_mmod_Times_Found-MMFF94s>
1000

> <r_mmod_Relative_Potential_Energy-MMFF94s>
0

> <i_mmod_Conformation-MMFF94s>
1

> <s_lp_label>
 _18

> <i_mmod_Serial_Number-MMFF94s>
18

$$$$
