CHEMBL1989423.smi
                    3D
 Structure written by MMmdl.
 20 22  0  0  1  0            999 V2000
   -0.3453    1.8492   -0.0021 C   0  0  0  0  0  0
    0.7978    0.8221   -0.0013 C   0  0  0  0  0  0
    2.1487    1.1627   -0.0018 C   0  0  0  0  0  0
    3.1128    0.1446   -0.0010 C   0  0  0  0  0  0
    2.7414   -1.2107    0.0003 C   0  0  0  0  0  0
    1.3963   -1.5721    0.0009 C   0  0  0  0  0  0
    0.4376   -0.5401    0.0001 C   0  0  0  0  0  0
   -0.9565   -0.4560    0.0002 C   0  0  0  0  0  0
   -1.9787   -1.3217    0.0011 N   0  0  0  0  0  0
   -3.0776   -0.5351    0.0006 N   0  0  0  0  0  0
   -3.9853   -0.9879    0.0011 H   0  0  0  0  0  0
   -2.8087    0.8075   -0.0007 C   0  0  0  0  0  0
   -1.4468    0.8703   -0.0010 C   0  0  0  0  0  0
   -0.3265    2.4570   -0.9099 H   0  0  0  0  0  0
   -0.3262    2.4587    0.9046 H   0  0  0  0  0  0
    2.4598    2.2034   -0.0028 H   0  0  0  0  0  0
    4.1687    0.4071   -0.0014 H   0  0  0  0  0  0
    3.5084   -1.9810    0.0010 H   0  0  0  0  0  0
    1.0822   -2.6104    0.0019 H   0  0  0  0  0  0
   -3.5918    1.5512   -0.0013 H   0  0  0  0  0  0
  1  2  1  0  0  0
  1 13  1  0  0  0
  1 14  1  0  0  0
  1 15  1  0  0  0
  2  3  2  0  0  0
  2  7  1  0  0  0
  3  4  1  0  0  0
  3 16  1  0  0  0
  4  5  2  0  0  0
  4 17  1  0  0  0
  5  6  1  0  0  0
  5 18  1  0  0  0
  6  7  2  0  0  0
  6 19  1  0  0  0
  7  8  1  0  0  0
  8 13  1  0  0  0
  8  9  2  0  0  0
  9 10  1  0  0  0
 10 12  1  0  0  0
 10 11  1  0  0  0
 12 13  2  0  0  0
 12 20  1  0  0  0
M  END
> <s_m_entry_id>
171

> <s_m_entry_name>
CHEMBL1989423.1

> <s_m_job_name>
mmod_csearch_27

> <s_lp_label>
 _19

> <r_mmod_Potential_Energy-MMFF94s>
223.244766

> <b_mmod_Minimization_Converged-MMFF94s>
1

> <r_mmod_RMS_Derivative-MMFF94s>
0.006598

> <i_mmod_Times_Found-MMFF94s>
1

> <r_mmod_Relative_Potential_Energy-MMFF94s>
0

> <i_mmod_Conformation-MMFF94s>
1

> <i_mmod_Serial_Number-MMFF94s>
19

$$$$
