CHEMBL1997846.smi
                    3D
 Structure written by MMmdl.
 41 44  0  0  1  0            999 V2000
    6.7922   -1.6956    2.9735 Cl  0  0  0  0  0  0
    6.0285   -1.2269    1.5079 C   0  0  0  0  0  0
    5.7989    0.0983    1.2352 C   0  0  0  0  0  0
    5.1860    0.3637    0.0373 C   0  0  0  0  0  0
    4.8738    1.6189   -0.4061 N   0  0  0  0  0  0
    5.2193    2.8889    0.2085 C   0  0  0  0  0  0
    6.6667    3.2768   -0.1225 C   0  0  0  0  0  0
    6.8561    3.6691   -1.5873 C   0  0  0  0  0  0
    5.8898    4.7737   -2.0007 C   0  0  0  0  0  0
    4.4418    4.3884   -1.7196 C   0  0  0  0  0  0
    4.2360    3.9732   -0.2623 C   0  0  0  0  0  0
    4.8374   -0.6245   -0.7992 N   0  0  0  0  0  0
    5.1096   -1.8921   -0.4317 C   0  0  0  0  0  0
    5.7040   -2.2480    0.7097 N   0  0  0  0  0  0
    4.7273   -2.9571   -1.3506 C   0  0  0  0  0  0
    4.1027   -2.7270   -2.5693 C   0  0  0  0  0  0
    3.8846   -3.9335   -3.1791 N   0  0  0  0  0  0
    3.4476   -4.0853   -4.0760 H   0  0  0  0  0  0
    4.3519   -4.9433   -2.3877 C   0  0  0  0  0  0
    4.2836   -6.2478   -2.7118 N   0  0  0  0  0  0
    4.8141   -7.0529   -1.7638 C   0  0  0  0  0  0
    5.3804   -6.6326   -0.5683 C   0  0  0  0  0  0
    5.4242   -5.2670   -0.2849 C   0  0  0  0  0  0
    4.8869   -4.3771   -1.2341 C   0  0  0  0  0  0
    6.0903    0.8695    1.9309 H   0  0  0  0  0  0
    4.4416    1.6123   -1.3233 H   0  0  0  0  0  0
    5.1063    2.8091    1.2964 H   0  0  0  0  0  0
    7.3556    2.4603    0.1229 H   0  0  0  0  0  0
    6.9551    4.1280    0.5078 H   0  0  0  0  0  0
    7.8867    4.0070   -1.7446 H   0  0  0  0  0  0
    6.7090    2.7921   -2.2292 H   0  0  0  0  0  0
    6.1341    5.6944   -1.4566 H   0  0  0  0  0  0
    6.0130    4.9919   -3.0675 H   0  0  0  0  0  0
    3.7858    5.2348   -1.9534 H   0  0  0  0  0  0
    4.1456    3.5701   -2.3865 H   0  0  0  0  0  0
    4.3632    4.8600    0.3721 H   0  0  0  0  0  0
    3.2020    3.6339   -0.1252 H   0  0  0  0  0  0
    3.7981   -1.8045   -3.0467 H   0  0  0  0  0  0
    4.7716   -8.1136   -2.0009 H   0  0  0  0  0  0
    5.7824   -7.3544    0.1341 H   0  0  0  0  0  0
    5.8603   -4.9059    0.6412 H   0  0  0  0  0  0
  1  2  1  0  0  0
  2 14  1  0  0  0
  2  3  2  0  0  0
  3  4  1  0  0  0
  3 25  1  0  0  0
  4 12  2  0  0  0
  4  5  1  0  0  0
  5  6  1  0  0  0
  5 26  1  0  0  0
  6 11  1  0  0  0
  6  7  1  0  0  0
  6 27  1  0  0  0
  7  8  1  0  0  0
  7 28  1  0  0  0
  7 29  1  0  0  0
  8  9  1  0  0  0
  8 30  1  0  0  0
  8 31  1  0  0  0
  9 10  1  0  0  0
  9 32  1  0  0  0
  9 33  1  0  0  0
 10 11  1  0  0  0
 10 34  1  0  0  0
 10 35  1  0  0  0
 11 36  1  0  0  0
 11 37  1  0  0  0
 12 13  1  0  0  0
 13 14  2  0  0  0
 13 15  1  0  0  0
 15 24  1  0  0  0
 15 16  2  0  0  0
 16 17  1  0  0  0
 16 38  1  0  0  0
 17 19  1  0  0  0
 17 18  1  0  0  0
 19 24  1  0  0  0
 19 20  2  0  0  0
 20 21  1  0  0  0
 21 22  2  0  0  0
 21 39  1  0  0  0
 22 23  1  0  0  0
 22 40  1  0  0  0
 23 24  2  0  0  0
 23 41  1  0  0  0
M  END
> <s_m_entry_id>
9979

> <s_m_job_name>
mmod_csearch_11

> <r_mmod_Potential_Energy-MMFF94s>
-221.25708

> <b_mmod_Minimization_Converged-MMFF94s>
1

> <r_mmod_RMS_Derivative-MMFF94s>
0.004705

> <i_mmod_Times_Found-MMFF94s>
82

> <r_mmod_Relative_Potential_Energy-MMFF94s>
0

> <i_mmod_Conformation-MMFF94s>
1

> <s_lp_label>
 _48

> <i_mmod_Serial_Number-MMFF94s>
48

$$$$
