CHEMBL1996702.smi
                    3D
 Structure written by MMmdl.
 62 65  0  0  1  0            999 V2000
   10.4282   -3.5247   -4.3756 C   0  0  0  0  0  0
    9.0741   -3.6929   -4.7800 O   0  0  0  0  0  0
    8.1265   -3.0227   -4.0493 C   0  0  0  0  0  0
    8.3648   -2.1879   -2.9553 C   0  0  0  0  0  0
    7.3003   -1.5495   -2.2858 C   0  0  0  0  0  0
    5.9887   -1.7722   -2.7416 C   0  0  0  0  0  0
    5.7414   -2.6046   -3.8331 C   0  0  0  0  0  0
    6.8085   -3.2178   -4.4730 C   0  0  0  0  0  0
    6.5408   -4.0289   -5.5420 O   0  0  0  0  0  0
    7.5567   -0.6677   -1.1365 C   0  0  0  0  0  0
    8.2481   -1.1196   -0.0177 C   0  0  0  0  0  0
    8.4790   -0.2597    1.0575 C   0  0  0  0  0  0
    8.0321    1.0843    1.0613 C   0  0  0  0  0  0
    8.3740    1.8438    2.2852 C   0  0  0  0  0  0
    9.0166    1.2781    3.1786 O   0  0  0  0  0  0
    8.0449    3.1400    2.5381 N   0  0  0  0  0  0
    7.3618    4.1356    1.8385 C   0  0  0  0  0  0
    7.2628    5.3666    2.5245 C   0  0  0  0  0  0
    6.6230    6.4738    1.9585 C   0  0  0  0  0  0
    6.0480    6.3428    0.6998 C   0  0  0  0  0  0
    6.1407    5.1269    0.0202 C   0  0  0  0  0  0
    6.8005    4.0034    0.5697 C   0  0  0  0  0  0
    6.8215    2.8505   -0.2187 N   0  0  0  0  0  0
    7.3369    1.5616   -0.0473 C   0  0  0  0  0  0
    7.1138    0.6652   -1.1281 C   0  0  0  0  0  0
    6.5108    7.7846    2.6595 C   0  0  0  0  0  0
    5.6283    8.5751    2.3438 O   0  0  0  0  0  0
    7.4519    8.0466    3.6256 N   0  0  0  0  0  0
    7.4997    9.2916    4.3577 C   0  0  0  0  0  0
    8.1785    9.1301    5.7185 C   0  0  0  0  0  0
    9.6367    8.6462    5.6287 C   0  0  0  0  0  0
    9.7833    7.2723    5.0948 N   0  0  0  0  0  0
   11.1811    7.0391    4.7085 C   0  0  0  0  0  0
    9.3887    6.2721    6.0963 C   0  0  0  0  0  0
   10.5850   -3.8954   -3.3573 H   0  0  0  0  0  0
   10.7410   -2.4796   -4.4703 H   0  0  0  0  0  0
   11.0533   -4.1212   -5.0470 H   0  0  0  0  0  0
    9.3758   -2.0038   -2.6048 H   0  0  0  0  0  0
    5.1449   -1.3055   -2.2370 H   0  0  0  0  0  0
    4.7266   -2.7766   -4.1787 H   0  0  0  0  0  0
    7.4138   -4.3560   -5.8347 H   0  0  0  0  0  0
    8.6041   -2.1462    0.0397 H   0  0  0  0  0  0
    9.0213   -0.6584    1.9153 H   0  0  0  0  0  0
    8.4013    3.3954    3.4513 H   0  0  0  0  0  0
    7.6763    5.4470    3.5260 H   0  0  0  0  0  0
    5.5297    7.1825    0.2408 H   0  0  0  0  0  0
    5.6810    5.0646   -0.9646 H   0  0  0  0  0  0
    6.3585    2.9787   -1.1120 H   0  0  0  0  0  0
    6.5799    1.0247   -2.0082 H   0  0  0  0  0  0
    8.2538    7.4347    3.7606 H   0  0  0  0  0  0
    6.4811    9.6720    4.4915 H   0  0  0  0  0  0
    8.0445   10.0127    3.7386 H   0  0  0  0  0  0
    7.5879    8.4580    6.3509 H   0  0  0  0  0  0
    8.1734   10.1062    6.2194 H   0  0  0  0  0  0
   10.1081    8.7254    6.6171 H   0  0  0  0  0  0
   10.1685    9.3495    4.9742 H   0  0  0  0  0  0
   11.4836    7.7399    3.9225 H   0  0  0  0  0  0
   11.3011    6.0331    4.2909 H   0  0  0  0  0  0
   11.8686    7.1484    5.5551 H   0  0  0  0  0  0
    8.3285    6.3640    6.3510 H   0  0  0  0  0  0
    9.9769    6.3520    7.0175 H   0  0  0  0  0  0
    9.5169    5.2605    5.6941 H   0  0  0  0  0  0
  1  2  1  0  0  0
  1 35  1  0  0  0
  1 36  1  0  0  0
  1 37  1  0  0  0
  2  3  1  0  0  0
  3  4  2  0  0  0
  3  8  1  0  0  0
  4  5  1  0  0  0
  4 38  1  0  0  0
  5  6  2  0  0  0
  5 10  1  0  0  0
  6  7  1  0  0  0
  6 39  1  0  0  0
  7  8  2  0  0  0
  7 40  1  0  0  0
  8  9  1  0  0  0
  9 41  1  0  0  0
 10 11  2  0  0  0
 10 25  1  0  0  0
 11 12  1  0  0  0
 11 42  1  0  0  0
 12 13  2  0  0  0
 12 43  1  0  0  0
 13 24  1  0  0  0
 13 14  1  0  0  0
 14 16  1  0  0  0
 14 15  2  0  0  0
 16 17  1  0  0  0
 16 44  1  0  0  0
 17 18  2  0  0  0
 17 22  1  0  0  0
 18 19  1  0  0  0
 18 45  1  0  0  0
 19 20  2  0  0  0
 19 26  1  0  0  0
 20 21  1  0  0  0
 20 46  1  0  0  0
 21 22  2  0  0  0
 21 47  1  0  0  0
 22 23  1  0  0  0
 23 24  1  0  0  0
 23 48  1  0  0  0
 24 25  2  0  0  0
 25 49  1  0  0  0
 26 28  1  0  0  0
 26 27  2  0  0  0
 28 29  1  0  0  0
 28 50  1  0  0  0
 29 30  1  0  0  0
 29 51  1  0  0  0
 29 52  1  0  0  0
 30 31  1  0  0  0
 30 53  1  0  0  0
 30 54  1  0  0  0
 31 32  1  0  0  0
 31 55  1  0  0  0
 31 56  1  0  0  0
 32 34  1  0  0  0
 32 33  1  0  0  0
 33 57  1  0  0  0
 33 58  1  0  0  0
 33 59  1  0  0  0
 34 60  1  0  0  0
 34 61  1  0  0  0
 34 62  1  0  0  0
M  END
> <s_m_entry_id>
186

> <s_m_entry_name>
CHEMBL1996702.1

> <s_m_job_name>
mmod_csearch_27

> <s_lp_label>
 _35

> <r_mmod_Potential_Energy-MMFF94s>
288.9104

> <b_mmod_Minimization_Converged-MMFF94s>
1

> <r_mmod_RMS_Derivative-MMFF94s>
0.014348

> <i_mmod_Times_Found-MMFF94s>
36

> <r_mmod_Relative_Potential_Energy-MMFF94s>
0

> <i_mmod_Conformation-MMFF94s>
1

> <i_mmod_Serial_Number-MMFF94s>
35

$$$$
