CHEMBL1988805.smi
                    3D
 Structure written by MMmdl.
 24 26  0  0  1  0            999 V2000
    1.0398   -0.0388    0.0579 N   0  0  0  0  0  0
    2.3801    0.0298    0.0164 C   0  0  0  0  0  0
    3.1329   -1.0425   -0.0068 N   0  0  0  0  0  0
    4.4176   -0.5977   -0.0469 C   0  0  0  0  0  0
    5.6039   -1.3481   -0.0836 C   0  0  0  0  0  0
    6.8334   -0.6797   -0.1220 C   0  0  0  0  0  0
    6.8840    0.7168   -0.1238 C   0  0  0  0  0  0
    5.7040    1.4771   -0.0872 C   0  0  0  0  0  0
    4.4727    0.7916   -0.0488 C   0  0  0  0  0  0
    3.1355    1.2151   -0.0073 N   0  0  0  0  0  0
    2.7189    2.5626    0.0054 C   0  0  0  0  0  0
    3.5639    3.5739   -0.0211 N   0  0  0  0  0  0
    2.8669    4.7661    0.0004 C   0  0  0  0  0  0
    1.4954    4.6473    0.0432 C   0  0  0  0  0  0
    1.0661    2.9893    0.0569 S   0  0  0  0  0  0
    8.1547    1.3828   -0.1634 C   0  0  0  0  0  0
    9.1852    1.9159   -0.1955 N   0  0  0  0  0  0
    0.5999   -0.9535    0.0717 H   0  0  0  0  0  0
    0.4167    0.7592    0.0771 H   0  0  0  0  0  0
    5.5569   -2.4326   -0.0820 H   0  0  0  0  0  0
    7.7511   -1.2650   -0.1504 H   0  0  0  0  0  0
    5.7477    2.5633   -0.0887 H   0  0  0  0  0  0
    3.4134    5.7018   -0.0169 H   0  0  0  0  0  0
    0.7515    5.4307    0.0663 H   0  0  0  0  0  0
  1  2  1  0  0  0
  1 18  1  0  0  0
  1 19  1  0  0  0
  2  3  2  0  0  0
  2 10  1  0  0  0
  3  4  1  0  0  0
  4  5  2  0  0  0
  4  9  1  0  0  0
  5  6  1  0  0  0
  5 20  1  0  0  0
  6  7  2  0  0  0
  6 21  1  0  0  0
  7  8  1  0  0  0
  7 16  1  0  0  0
  8  9  2  0  0  0
  8 22  1  0  0  0
  9 10  1  0  0  0
 10 11  1  0  0  0
 11 12  2  0  0  0
 11 15  1  0  0  0
 12 13  1  0  0  0
 13 14  2  0  0  0
 13 23  1  0  0  0
 14 15  1  0  0  0
 14 24  1  0  0  0
 16 17  3  0  0  0
M  END
> <s_m_entry_id>
170

> <s_m_entry_name>
CHEMBL1988805.1

> <s_m_job_name>
mmod_csearch_27

> <s_lp_label>
 _18

> <r_mmod_Potential_Energy-MMFF94s>
213.875717

> <b_mmod_Minimization_Converged-MMFF94s>
1

> <r_mmod_RMS_Derivative-MMFF94s>
0.014717

> <i_mmod_Times_Found-MMFF94s>
511

> <r_mmod_Relative_Potential_Energy-MMFF94s>
0

> <i_mmod_Conformation-MMFF94s>
1

> <i_mmod_Serial_Number-MMFF94s>
18

$$$$
