CHEMBL1996176.smi
                    3D
 Structure written by MMmdl.
 26 28  0  0  1  0            999 V2000
    1.8074    0.1157    1.0816 O   0  0  0  0  0  0
    2.9287    0.0870    0.6113 C   0  0  0  0  0  0
    3.7121    1.1679    0.2469 N   0  0  0  0  0  0
    4.9313    0.7533   -0.2815 C   0  0  0  0  0  0
    5.9339    1.5715   -0.7641 C   0  0  0  0  0  0
    7.0696    0.9525   -1.2875 C   0  0  0  0  0  0
    7.1683   -0.4495   -1.3232 C   0  0  0  0  0  0
    6.1371   -1.2579   -0.8280 C   0  0  0  0  0  0
    5.0202   -0.6450   -0.2898 C   0  0  0  0  0  0
    3.7657   -1.1285    0.2986 C   0  0  0  0  0  0
    3.2733   -2.3415    0.5897 C   0  0  0  0  0  0
    3.9818   -3.5498    0.4144 C   0  0  0  0  0  0
    5.1511   -4.0667    0.9358 C   0  0  0  0  0  0
    5.3275   -5.3628    0.3933 C   0  0  0  0  0  0
    4.2533   -5.6105   -0.4309 C   0  0  0  0  0  0
    3.4322   -4.5121   -0.3980 N   0  0  0  0  0  0
    2.5637   -4.4194   -0.9088 H   0  0  0  0  0  0
    3.4062    2.1229    0.3488 H   0  0  0  0  0  0
    5.8471    2.6516   -0.7467 H   0  0  0  0  0  0
    7.8838    1.5577   -1.6802 H   0  0  0  0  0  0
    8.0566   -0.9142   -1.7467 H   0  0  0  0  0  0
    6.2258   -2.3364   -0.8849 H   0  0  0  0  0  0
    2.2691   -2.4139    1.0071 H   0  0  0  0  0  0
    5.8071   -3.5637    1.6352 H   0  0  0  0  0  0
    6.1454   -6.0438    0.5900 H   0  0  0  0  0  0
    3.9967   -6.4740   -1.0297 H   0  0  0  0  0  0
  1  2  2  0  0  0
  2 10  1  0  0  0
  2  3  1  0  0  0
  3  4  1  0  0  0
  3 18  1  0  0  0
  4  9  1  0  0  0
  4  5  2  0  0  0
  5  6  1  0  0  0
  5 19  1  0  0  0
  6  7  2  0  0  0
  6 20  1  0  0  0
  7  8  1  0  0  0
  7 21  1  0  0  0
  8  9  2  0  0  0
  8 22  1  0  0  0
  9 10  1  0  0  0
 10 11  2  0  0  0
 11 12  1  0  0  0
 11 23  1  0  0  0
 12 13  2  0  0  0
 12 16  1  0  0  0
 13 14  1  0  0  0
 13 24  1  0  0  0
 14 15  2  0  0  0
 14 25  1  0  0  0
 15 16  1  0  0  0
 15 26  1  0  0  0
 16 17  1  0  0  0
M  END
> <s_m_entry_id>
183

> <s_m_entry_name>
CHEMBL1996176.1

> <s_m_job_name>
mmod_csearch_27

> <s_lp_label>
 _32

> <r_mmod_Potential_Energy-MMFF94s>
114.683983

> <b_mmod_Minimization_Converged-MMFF94s>
1

> <r_mmod_RMS_Derivative-MMFF94s>
0.006944

> <i_mmod_Times_Found-MMFF94s>
287

> <r_mmod_Relative_Potential_Energy-MMFF94s>
0

> <i_mmod_Conformation-MMFF94s>
1

> <i_mmod_Serial_Number-MMFF94s>
32

$$$$
