CHEMBL1983268.smi
                    3D
 Structure written by MMmdl.
 75 80  0  0  1  0            999 V2000
    0.9262   -4.9203   -1.1040 C   0  0  0  0  0  0
    1.2387   -4.3545   -2.4145 N   0  0  0  0  0  0
    2.6771   -4.5091   -2.7198 C   0  0  0  0  0  0
    3.0744   -3.8949   -4.0822 C   0  0  0  0  0  0
    2.6441   -2.4853   -4.1776 N   0  0  0  0  0  0
    1.2344   -2.2577   -3.8129 C   0  0  0  0  0  0
    0.8959   -2.9165   -2.4558 C   0  0  0  0  0  0
    3.2623   -1.6797   -5.1298 C   0  0  0  0  0  0
    2.5408   -0.9305   -6.0634 C   0  0  0  0  0  0
    3.1892   -0.1413   -7.0146 C   0  0  0  0  0  0
    4.5881   -0.0732   -7.0474 C   0  0  0  0  0  0
    5.1901    0.7403   -8.1517 C   0  0  0  0  0  0
    4.5961    1.7397   -8.5338 O   0  0  0  0  0  0
    6.3677    0.2365   -8.6388 N   0  0  0  0  0  0
    7.2165    0.7480   -9.5905 C   0  0  0  0  0  0
    8.3231    0.0273   -9.8153 N   0  0  0  0  0  0
    8.9696    0.7061  -10.7710 N   0  0  0  0  0  0
    9.8442    0.3315  -11.1195 H   0  0  0  0  0  0
    8.3490    1.8570  -11.1625 C   0  0  0  0  0  0
    8.7168    2.8171  -12.1109 C   0  0  0  0  0  0
    7.8566    3.9025  -12.2935 C   0  0  0  0  0  0
    6.6771    4.0271  -11.5519 C   0  0  0  0  0  0
    5.7471    5.1977  -11.7778 C   0  0  0  0  0  0
    4.7749    4.9782  -12.9129 C   0  0  0  0  0  0
    3.5990    4.2388  -12.7139 C   0  0  0  0  0  0
    2.7175    4.0277  -13.7724 C   0  0  0  0  0  0
    1.5972    3.3233  -13.5650 F   0  0  0  0  0  0
    2.9789    4.5344  -15.0370 C   0  0  0  0  0  0
    4.1442    5.2598  -15.2353 C   0  0  0  0  0  0
    4.4143    5.7535  -16.4509 F   0  0  0  0  0  0
    5.0415    5.4853  -14.1930 C   0  0  0  0  0  0
    6.3397    3.0361  -10.6079 C   0  0  0  0  0  0
    7.1835    1.9247  -10.4011 C   0  0  0  0  0  0
    5.3629   -0.7583   -6.0843 C   0  0  0  0  0  0
    6.7522   -0.6725   -6.0892 N   0  0  0  0  0  0
    7.6725   -1.5113   -5.3219 C   0  0  0  0  0  0
    8.9697   -1.7003   -6.1182 C   0  0  0  0  0  0
    9.8501   -0.4597   -6.0827 C   0  0  0  0  0  0
   10.0947   -0.0576   -4.7361 O   0  0  0  0  0  0
    8.8917    0.3039   -4.0597 C   0  0  0  0  0  0
    7.9580   -0.8928   -3.9525 C   0  0  0  0  0  0
    4.6679   -1.5691   -5.1662 C   0  0  0  0  0  0
   -0.1444   -4.8263   -0.8917 H   0  0  0  0  0  0
    1.4820   -4.4322   -0.2952 H   0  0  0  0  0  0
    1.1584   -5.9908   -1.0839 H   0  0  0  0  0  0
    2.9335   -5.5753   -2.7394 H   0  0  0  0  0  0
    3.2839   -4.0412   -1.9325 H   0  0  0  0  0  0
    4.1584   -4.0058   -4.1922 H   0  0  0  0  0  0
    2.6063   -4.4661   -4.8944 H   0  0  0  0  0  0
    1.0290   -1.1841   -3.7208 H   0  0  0  0  0  0
    0.5793   -2.6670   -4.5924 H   0  0  0  0  0  0
    1.4271   -2.3777   -1.6592 H   0  0  0  0  0  0
   -0.1785   -2.7908   -2.2747 H   0  0  0  0  0  0
    1.4558   -0.9698   -6.0930 H   0  0  0  0  0  0
    2.5971    0.4059   -7.7457 H   0  0  0  0  0  0
    6.7006   -0.6444   -8.2608 H   0  0  0  0  0  0
    9.6301    2.7279  -12.6903 H   0  0  0  0  0  0
    8.1175    4.6587  -13.0316 H   0  0  0  0  0  0
    6.3407    6.1030  -11.9624 H   0  0  0  0  0  0
    5.1879    5.4162  -10.8582 H   0  0  0  0  0  0
    3.3613    3.8170  -11.7403 H   0  0  0  0  0  0
    2.2879    4.3642  -15.8533 H   0  0  0  0  0  0
    5.9443    6.0552  -14.3934 H   0  0  0  0  0  0
    5.4189    3.1396  -10.0451 H   0  0  0  0  0  0
    7.1381    0.1937   -6.4641 H   0  0  0  0  0  0
    7.2359   -2.5087   -5.1925 H   0  0  0  0  0  0
    8.7583   -1.9825   -7.1560 H   0  0  0  0  0  0
    9.5272   -2.5284   -5.6615 H   0  0  0  0  0  0
   10.8179   -0.6801   -6.5446 H   0  0  0  0  0  0
    9.4066    0.3733   -6.6399 H   0  0  0  0  0  0
    9.1662    0.6492   -3.0578 H   0  0  0  0  0  0
    8.4170    1.1458   -4.5769 H   0  0  0  0  0  0
    8.4462   -1.6559   -3.3328 H   0  0  0  0  0  0
    7.0347   -0.6000   -3.4413 H   0  0  0  0  0  0
    5.2270   -2.0967   -4.3997 H   0  0  0  0  0  0
  1  2  1  0  0  0
  1 43  1  0  0  0
  1 44  1  0  0  0
  1 45  1  0  0  0
  2  7  1  0  0  0
  2  3  1  0  0  0
  3  4  1  0  0  0
  3 46  1  0  0  0
  3 47  1  0  0  0
  4  5  1  0  0  0
  4 48  1  0  0  0
  4 49  1  0  0  0
  5  6  1  0  0  0
  5  8  1  0  0  0
  6  7  1  0  0  0
  6 50  1  0  0  0
  6 51  1  0  0  0
  7 52  1  0  0  0
  7 53  1  0  0  0
  8  9  2  0  0  0
  8 42  1  0  0  0
  9 10  1  0  0  0
  9 54  1  0  0  0
 10 11  2  0  0  0
 10 55  1  0  0  0
 11 34  1  0  0  0
 11 12  1  0  0  0
 12 14  1  0  0  0
 12 13  2  0  0  0
 14 15  1  0  0  0
 14 56  1  0  0  0
 15 33  1  0  0  0
 15 16  2  0  0  0
 16 17  1  0  0  0
 17 19  1  0  0  0
 17 18  1  0  0  0
 19 33  1  0  0  0
 19 20  2  0  0  0
 20 21  1  0  0  0
 20 57  1  0  0  0
 21 22  2  0  0  0
 21 58  1  0  0  0
 22 32  1  0  0  0
 22 23  1  0  0  0
 23 24  1  0  0  0
 23 59  1  0  0  0
 23 60  1  0  0  0
 24 31  1  0  0  0
 24 25  2  0  0  0
 25 26  1  0  0  0
 25 61  1  0  0  0
 26 28  2  0  0  0
 26 27  1  0  0  0
 28 29  1  0  0  0
 28 62  1  0  0  0
 29 31  2  0  0  0
 29 30  1  0  0  0
 31 63  1  0  0  0
 32 33  2  0  0  0
 32 64  1  0  0  0
 34 42  2  0  0  0
 34 35  1  0  0  0
 35 36  1  0  0  0
 35 65  1  0  0  0
 36 41  1  0  0  0
 36 37  1  0  0  0
 36 66  1  0  0  0
 37 38  1  0  0  0
 37 67  1  0  0  0
 37 68  1  0  0  0
 38 39  1  0  0  0
 38 69  1  0  0  0
 38 70  1  0  0  0
 39 40  1  0  0  0
 40 41  1  0  0  0
 40 71  1  0  0  0
 40 72  1  0  0  0
 41 73  1  0  0  0
 41 74  1  0  0  0
 42 75  1  0  0  0
M  END
> <s_m_entry_id>
160

> <s_m_entry_name>
CHEMBL1983268.1

> <s_m_job_name>
mmod_csearch_27

> <s_lp_label>
 _8

> <r_mmod_Potential_Energy-MMFF94s>
544.417419

> <b_mmod_Minimization_Converged-MMFF94s>
1

> <r_mmod_RMS_Derivative-MMFF94s>
0.013086

> <i_mmod_Times_Found-MMFF94s>
49

> <r_mmod_Relative_Potential_Energy-MMFF94s>
0

> <i_mmod_Conformation-MMFF94s>
1

> <i_mmod_Serial_Number-MMFF94s>
8

$$$$
