CHEMBL2004118.smi
                    3D
 Structure written by MMmdl.
 45 48  0  0  1  0            999 V2000
    6.1292   11.6406  -11.2671 C   0  0  0  0  0  0
    5.8800   11.0684   -9.8809 C   0  0  0  0  0  0
    4.9545    9.8860   -9.9342 C   0  0  0  0  0  0
    5.5190    8.6531  -10.0889 N   0  0  0  0  0  0
    4.7442    7.5472  -10.1604 C   0  0  0  0  0  0
    5.4682    6.3655  -10.3133 N   0  0  0  0  0  0
    5.1235    5.0165  -10.4318 C   0  0  0  0  0  0
    6.1502    4.0729  -10.5671 C   0  0  0  0  0  0
    5.8787    2.7029  -10.6877 C   0  0  0  0  0  0
    4.5667    2.2133  -10.6744 C   0  0  0  0  0  0
    4.3109    0.8479  -10.7715 N   0  0  0  0  0  0
    3.8931    0.1641   -9.5342 C   0  0  0  0  0  0
    3.2226   -1.1744   -9.8817 C   0  0  0  0  0  0
    4.0725   -1.9956  -10.7024 O   0  0  0  0  0  0
    4.3706   -1.3164  -11.9345 C   0  0  0  0  0  0
    5.1041    0.0108  -11.6825 C   0  0  0  0  0  0
    3.5361    3.1672  -10.5455 C   0  0  0  0  0  0
    1.8627    2.7035  -10.5907 Cl  0  0  0  0  0  0
    3.8130    4.5388  -10.4260 C   0  0  0  0  0  0
    3.4061    7.5433  -10.0946 N   0  0  0  0  0  0
    2.8784    8.7639   -9.9520 C   0  0  0  0  0  0
    1.5387    9.0265   -9.8680 N   0  0  0  0  0  0
    0.8237    8.3143   -9.9061 H   0  0  0  0  0  0
    1.3408   10.3776   -9.7317 C   0  0  0  0  0  0
    2.5798   10.9851   -9.7280 C   0  0  0  0  0  0
    3.5600    9.9640   -9.8661 C   0  0  0  0  0  0
    5.1974   11.9835  -11.7295 H   0  0  0  0  0  0
    6.5769   10.8924  -11.9301 H   0  0  0  0  0  0
    6.8122   12.4939  -11.2075 H   0  0  0  0  0  0
    5.4575   11.8416   -9.2294 H   0  0  0  0  0  0
    6.8325   10.7621   -9.4330 H   0  0  0  0  0  0
    6.4502    6.5989  -10.3369 H   0  0  0  0  0  0
    7.1896    4.3942  -10.5755 H   0  0  0  0  0  0
    6.7197    2.0199  -10.7691 H   0  0  0  0  0  0
    3.2010    0.7662   -8.9365 H   0  0  0  0  0  0
    4.7846   -0.0240   -8.9226 H   0  0  0  0  0  0
    3.0099   -1.7322   -8.9643 H   0  0  0  0  0  0
    2.2717   -1.0141  -10.4039 H   0  0  0  0  0  0
    5.0003   -1.9803  -12.5352 H   0  0  0  0  0  0
    3.4366   -1.1521  -12.4854 H   0  0  0  0  0  0
    6.0800   -0.2000  -11.2288 H   0  0  0  0  0  0
    5.2638    0.5182  -12.6409 H   0  0  0  0  0  0
    2.9770    5.2245  -10.3372 H   0  0  0  0  0  0
    0.3419   10.7854   -9.6507 H   0  0  0  0  0  0
    2.7583   12.0487   -9.6362 H   0  0  0  0  0  0
  1  2  1  0  0  0
  1 27  1  0  0  0
  1 28  1  0  0  0
  1 29  1  0  0  0
  2  3  1  0  0  0
  2 30  1  0  0  0
  2 31  1  0  0  0
  3  4  2  0  0  0
  3 26  1  0  0  0
  4  5  1  0  0  0
  5 20  2  0  0  0
  5  6  1  0  0  0
  6  7  1  0  0  0
  6 32  1  0  0  0
  7  8  2  0  0  0
  7 19  1  0  0  0
  8  9  1  0  0  0
  8 33  1  0  0  0
  9 10  2  0  0  0
  9 34  1  0  0  0
 10 17  1  0  0  0
 10 11  1  0  0  0
 11 16  1  0  0  0
 11 12  1  0  0  0
 12 13  1  0  0  0
 12 35  1  0  0  0
 12 36  1  0  0  0
 13 14  1  0  0  0
 13 37  1  0  0  0
 13 38  1  0  0  0
 14 15  1  0  0  0
 15 16  1  0  0  0
 15 39  1  0  0  0
 15 40  1  0  0  0
 16 41  1  0  0  0
 16 42  1  0  0  0
 17 19  2  0  0  0
 17 18  1  0  0  0
 19 43  1  0  0  0
 20 21  1  0  0  0
 21 22  1  0  0  0
 21 26  2  0  0  0
 22 24  1  0  0  0
 22 23  1  0  0  0
 24 25  2  0  0  0
 24 44  1  0  0  0
 25 26  1  0  0  0
 25 45  1  0  0  0
M  END
> <s_m_entry_id>
203

> <s_m_entry_name>
CHEMBL2004118.1

> <s_m_job_name>
mmod_csearch_27

> <s_lp_label>
 _52

> <r_mmod_Potential_Energy-MMFF94s>
260.005981

> <b_mmod_Minimization_Converged-MMFF94s>
1

> <r_mmod_RMS_Derivative-MMFF94s>
0.009144

> <i_mmod_Times_Found-MMFF94s>
186

> <r_mmod_Relative_Potential_Energy-MMFF94s>
0

> <i_mmod_Conformation-MMFF94s>
1

> <i_mmod_Serial_Number-MMFF94s>
52

$$$$
