CHEMBL1991410.smi
                    3D
 Structure written by MMmdl.
 38 41  0  0  1  0            999 V2000
   -4.1425   -2.8679    1.2560 F   0  0  0  0  0  0
   -3.5968   -1.7169    0.8361 C   0  0  0  0  0  0
   -4.3685   -0.5564    0.8638 C   0  0  0  0  0  0
   -3.8202    0.6530    0.4298 C   0  0  0  0  0  0
   -2.5005    0.6945   -0.0267 C   0  0  0  0  0  0
   -1.7380   -0.4723   -0.0501 C   0  0  0  0  0  0
   -0.4738   -0.4109   -0.4935 F   0  0  0  0  0  0
   -2.2874   -1.6772    0.3716 C   0  0  0  0  0  0
   -1.4790   -2.8913    0.3621 C   0  0  0  0  0  0
   -0.8076   -3.1567    1.3583 O   0  0  0  0  0  0
   -1.4618   -3.7295   -0.7264 N   0  0  0  0  0  0
   -2.1386   -3.6147   -1.9446 C   0  0  0  0  0  0
   -1.9433   -4.6246   -2.8802 C   0  0  0  0  0  0
   -2.5981   -4.5481   -4.1129 C   0  0  0  0  0  0
   -3.4264   -3.4613   -4.3727 C   0  0  0  0  0  0
   -3.5562   -2.5134   -3.3801 C   0  0  0  0  0  0
   -4.5578   -1.1381   -3.5971 Cl  0  0  0  0  0  0
   -2.9391   -2.5643   -2.1840 N   0  0  0  0  0  0
   -2.4131   -5.5928   -5.1040 C   0  0  0  0  0  0
   -2.0792   -5.3290   -6.4211 C   0  0  0  0  0  0
   -1.9580   -6.5283   -7.0770 N   0  0  0  0  0  0
   -1.7177   -6.6631   -8.0482 H   0  0  0  0  0  0
   -2.2100   -7.5571   -6.2138 C   0  0  0  0  0  0
   -2.1723   -8.8575   -6.5561 N   0  0  0  0  0  0
   -2.4682   -9.6813   -5.5255 C   0  0  0  0  0  0
   -2.7855   -9.2808   -4.2341 C   0  0  0  0  0  0
   -2.8086   -7.9178   -3.9338 C   0  0  0  0  0  0
   -2.5024   -7.0135   -4.9669 C   0  0  0  0  0  0
   -5.3930   -0.6035    1.2209 H   0  0  0  0  0  0
   -4.4199    1.5600    0.4458 H   0  0  0  0  0  0
   -2.0613    1.6274   -0.3674 H   0  0  0  0  0  0
   -0.8608   -4.5305   -0.5893 H   0  0  0  0  0  0
   -1.2809   -5.4575   -2.6650 H   0  0  0  0  0  0
   -3.9611   -3.3614   -5.3102 H   0  0  0  0  0  0
   -1.9032   -4.4003   -6.9484 H   0  0  0  0  0  0
   -2.4462  -10.7396   -5.7763 H   0  0  0  0  0  0
   -3.0153  -10.0186   -3.4728 H   0  0  0  0  0  0
   -3.0640   -7.5746   -2.9370 H   0  0  0  0  0  0
  1  2  1  0  0  0
  2  8  1  0  0  0
  2  3  2  0  0  0
  3  4  1  0  0  0
  3 29  1  0  0  0
  4  5  2  0  0  0
  4 30  1  0  0  0
  5  6  1  0  0  0
  5 31  1  0  0  0
  6  8  2  0  0  0
  6  7  1  0  0  0
  8  9  1  0  0  0
  9 11  1  0  0  0
  9 10  2  0  0  0
 11 12  1  0  0  0
 11 32  1  0  0  0
 12 18  1  0  0  0
 12 13  2  0  0  0
 13 14  1  0  0  0
 13 33  1  0  0  0
 14 15  2  0  0  0
 14 19  1  0  0  0
 15 16  1  0  0  0
 15 34  1  0  0  0
 16 18  2  0  0  0
 16 17  1  0  0  0
 19 28  1  0  0  0
 19 20  2  0  0  0
 20 21  1  0  0  0
 20 35  1  0  0  0
 21 23  1  0  0  0
 21 22  1  0  0  0
 23 28  1  0  0  0
 23 24  2  0  0  0
 24 25  1  0  0  0
 25 26  2  0  0  0
 25 36  1  0  0  0
 26 27  1  0  0  0
 26 37  1  0  0  0
 27 28  2  0  0  0
 27 38  1  0  0  0
M  END
> <s_m_entry_id>
174

> <s_m_entry_name>
CHEMBL1991410.1

> <s_m_job_name>
mmod_csearch_27

> <s_lp_label>
 _22

> <r_mmod_Potential_Energy-MMFF94s>
-70.254555

> <b_mmod_Minimization_Converged-MMFF94s>
1

> <r_mmod_RMS_Derivative-MMFF94s>
0.010079

> <i_mmod_Times_Found-MMFF94s>
606

> <r_mmod_Relative_Potential_Energy-MMFF94s>
0

> <i_mmod_Conformation-MMFF94s>
1

> <i_mmod_Serial_Number-MMFF94s>
22

$$$$
