CHEMBL2001704.smi
                    3D
 Structure written by MMmdl.
 19 21  0  0  1  0            999 V2000
    1.1092   -0.2019    0.0851 N   0  0  0  0  0  0
    2.4207    0.0840    0.0758 C   0  0  0  0  0  0
    3.4138   -0.7907    0.0658 N   0  0  0  0  0  0
    4.6219   -0.1054    0.0584 N   0  0  0  0  0  0
    4.3101    1.1593    0.0643 C   0  0  0  0  0  0
    5.2155    2.6338    0.0614 S   0  0  0  0  0  0
    3.6553    3.5312    0.0759 C   0  0  0  0  0  0
    3.4986    4.9073    0.0809 C   0  0  0  0  0  0
    2.2012    5.4234    0.0923 C   0  0  0  0  0  0
    1.0883    4.5662    0.0985 C   0  0  0  0  0  0
    1.2487    3.1762    0.0934 C   0  0  0  0  0  0
    2.5389    2.6699    0.0821 C   0  0  0  0  0  0
    2.9586    1.3493    0.0752 N   0  0  0  0  0  0
    0.8287   -1.1784    0.0845 H   0  0  0  0  0  0
    0.3561    0.4690    0.0928 H   0  0  0  0  0  0
    4.3578    5.5710    0.0762 H   0  0  0  0  0  0
    2.0498    6.5012    0.0965 H   0  0  0  0  0  0
    0.0869    4.9936    0.1074 H   0  0  0  0  0  0
    0.3700    2.5449    0.0984 H   0  0  0  0  0  0
  1  2  1  0  0  0
  1 14  1  0  0  0
  1 15  1  0  0  0
  2  3  2  0  0  0
  2 13  1  0  0  0
  3  4  1  0  0  0
  4  5  2  0  0  0
  5  6  1  0  0  0
  5 13  1  0  0  0
  6  7  1  0  0  0
  7 12  1  0  0  0
  7  8  2  0  0  0
  8  9  1  0  0  0
  8 16  1  0  0  0
  9 10  2  0  0  0
  9 17  1  0  0  0
 10 11  1  0  0  0
 10 18  1  0  0  0
 11 12  2  0  0  0
 11 19  1  0  0  0
 12 13  1  0  0  0
M  END
> <s_m_entry_id>
198

> <s_m_entry_name>
CHEMBL2001704.1

> <s_m_job_name>
mmod_csearch_27

> <s_lp_label>
 _47

> <r_mmod_Potential_Energy-MMFF94s>
178.779861

> <b_mmod_Minimization_Converged-MMFF94s>
1

> <r_mmod_RMS_Derivative-MMFF94s>
0.009713

> <i_mmod_Times_Found-MMFF94s>
500

> <r_mmod_Relative_Potential_Energy-MMFF94s>
0

> <i_mmod_Conformation-MMFF94s>
1

> <i_mmod_Serial_Number-MMFF94s>
47

$$$$
