CHEMBL234085.smi
                    3D
 Structure written by MMmdl.
 43 45  0  0  1  0            999 V2000
    2.5921    2.7120   -2.9659 C   0  0  0  0  0  0
    1.2612    2.5125   -2.2344 C   0  0  1  0  0  0
    0.3191    1.6506   -3.1000 C   0  0  0  0  0  0
   -0.9989    1.3631   -2.3844 C   0  0  0  0  0  0
   -0.7541    0.7343   -1.0889 N   0  0  0  0  0  0
    0.1016    1.5144   -0.1884 C   0  0  0  0  0  0
    1.4625    1.8481   -0.8450 C   0  0  2  0  0  0
    2.2828    2.6659    0.0671 N   0  0  0  0  0  0
    2.0214    4.0782    0.2642 C   0  0  0  0  0  0
    3.1485    1.9902    0.9233 C   0  0  0  0  0  0
    2.9487    0.6523    1.0951 N   0  0  0  0  0  0
    3.7500   -0.0556    1.9128 C   0  0  0  0  0  0
    4.7735    0.3973    2.6473 N   0  0  0  0  0  0
    4.9576    1.7109    2.4623 C   0  0  0  0  0  0
    5.9456    2.4314    3.0744 N   0  0  0  0  0  0
    6.6136    2.0295    3.7160 H   0  0  0  0  0  0
    5.8894    3.7363    2.6647 C   0  0  0  0  0  0
    4.8405    3.8463    1.7756 C   0  0  0  0  0  0
    4.2236    2.5634    1.6461 C   0  0  0  0  0  0
   -1.2590   -0.5345   -0.8392 C   0  0  0  0  0  0
   -1.9030   -1.1542   -1.6910 O   0  0  0  0  0  0
   -1.0399   -1.1656    0.5178 C   0  0  0  0  0  0
    0.2285   -1.8921    0.5545 C   0  0  0  0  0  0
    1.2280   -2.4789    0.6281 N   0  0  0  0  0  0
    3.1134    1.7594   -3.1086 H   0  0  0  0  0  0
    3.2567    3.3812   -2.4113 H   0  0  0  0  0  0
    2.4270    3.1568   -3.9531 H   0  0  0  0  0  0
    0.7907    3.4960   -2.1177 H   0  0  0  0  0  0
    0.8108    0.7002   -3.3454 H   0  0  0  0  0  0
    0.1130    2.1605   -4.0485 H   0  0  0  0  0  0
   -1.5441    2.2962   -2.1992 H   0  0  0  0  0  0
   -1.6330    0.7382   -3.0207 H   0  0  0  0  0  0
   -0.4462    2.4338    0.0524 H   0  0  0  0  0  0
    0.2670    0.9959    0.7565 H   0  0  0  0  0  0
    1.9697    0.8953   -1.0580 H   0  0  0  0  0  0
    1.0500    4.3732   -0.1446 H   0  0  0  0  0  0
    2.7837    4.6842   -0.2346 H   0  0  0  0  0  0
    1.9868    4.3397    1.3278 H   0  0  0  0  0  0
    3.5358   -1.1182    1.9842 H   0  0  0  0  0  0
    6.6004    4.4657    3.0295 H   0  0  0  0  0  0
    4.5604    4.7583    1.2681 H   0  0  0  0  0  0
   -1.8666   -1.8653    0.6925 H   0  0  0  0  0  0
   -1.1142   -0.4226    1.3156 H   0  0  0  0  0  0
  1  2  1  0  0  0
  1 25  1  0  0  0
  1 26  1  0  0  0
  1 27  1  0  0  0
  2  7  1  0  0  0
  2  3  1  0  0  0
  2 28  1  0  0  0
  3  4  1  0  0  0
  3 29  1  0  0  0
  3 30  1  0  0  0
  4  5  1  0  0  0
  4 31  1  0  0  0
  4 32  1  0  0  0
  5  6  1  0  0  0
  5 20  1  0  0  0
  6  7  1  0  0  0
  6 33  1  0  0  0
  6 34  1  0  0  0
  7  8  1  0  0  0
  7 35  1  0  0  0
  8 10  1  0  0  0
  8  9  1  0  0  0
  9 36  1  0  0  0
  9 37  1  0  0  0
  9 38  1  0  0  0
 10 11  2  0  0  0
 10 19  1  0  0  0
 11 12  1  0  0  0
 12 13  2  0  0  0
 12 39  1  0  0  0
 13 14  1  0  0  0
 14 15  1  0  0  0
 14 19  2  0  0  0
 15 17  1  0  0  0
 15 16  1  0  0  0
 17 18  2  0  0  0
 17 40  1  0  0  0
 18 19  1  0  0  0
 18 41  1  0  0  0
 20 22  1  0  0  0
 20 21  2  0  0  0
 22 23  1  0  0  0
 22 42  1  0  0  0
 22 43  1  0  0  0
 23 24  3  0  0  0
M  END
> <s_m_entry_id>
112

> <s_m_entry_name>
CHEMBL234085.1

> <s_m_job_name>
mmod_csearch_21

> <s_lp_label>
 _8

> <r_mmod_Potential_Energy-MMFF94s>
30.62215

> <b_mmod_Minimization_Converged-MMFF94s>
1

> <r_mmod_RMS_Derivative-MMFF94s>
0.009537

> <i_mmod_Times_Found-MMFF94s>
122

> <r_mmod_Relative_Potential_Energy-MMFF94s>
0

> <i_mmod_Conformation-MMFF94s>
1

> <i_mmod_Serial_Number-MMFF94s>
8

$$$$
