CHEMBL1164180.smi
                    3D
 Structure written by MMmdl.
 61 65  0  0  1  0            999 V2000
    6.3772   -6.9315    2.2097 C   0  0  0  0  0  0
    6.8084   -6.8897    0.8145 N   0  0  0  0  0  0
    8.2150   -6.4496    0.7148 C   0  0  0  0  0  0
    8.7170   -6.3536   -0.7451 C   0  0  0  0  0  0
    7.8254   -5.5170   -1.5618 N   0  0  0  0  0  0
    6.3936   -5.8440   -1.4436 C   0  0  0  0  0  0
    5.9643   -5.9565    0.0366 C   0  0  0  0  0  0
    8.2498   -5.1068   -2.8214 C   0  0  0  0  0  0
    9.5446   -4.6395   -3.0381 C   0  0  0  0  0  0
    9.9446   -4.2238   -4.3125 C   0  0  0  0  0  0
    9.0500   -4.2648   -5.3821 C   0  0  0  0  0  0
    7.7760   -4.7281   -5.0756 C   0  0  0  0  0  0
    7.3688   -5.1309   -3.8455 N   0  0  0  0  0  0
    9.4335   -3.8475   -6.7362 C   0  0  0  0  0  0
    8.6413   -3.0049   -7.5075 C   0  0  0  0  0  0
    8.9423   -2.5969   -8.7591 N   0  0  0  0  0  0
   10.1086   -3.0241   -9.2859 C   0  0  0  0  0  0
   10.3525   -2.5884  -10.5750 N   0  0  0  0  0  0
   11.6794   -2.7697  -11.1118 C   0  0  0  0  0  0
   12.2607   -4.1236  -10.6683 C   0  0  0  0  0  0
   12.2373   -4.2738   -9.1971 N   0  0  0  0  0  0
   13.1875   -5.2083   -8.6030 C   0  0  0  0  0  0
   13.8633   -4.6751   -7.3479 C   0  0  0  0  0  0
   13.8150   -5.4719   -6.1825 C   0  0  0  0  0  0
   14.3748   -5.0314   -4.9847 C   0  0  0  0  0  0
   14.2534   -6.0078   -3.5744 Cl  0  0  0  0  0  0
   15.0157   -3.8023   -4.9225 C   0  0  0  0  0  0
   15.1060   -3.0157   -6.0713 C   0  0  0  0  0  0
   14.5517   -3.4403   -7.2988 C   0  0  0  0  0  0
   14.7184   -2.5379   -8.5048 C   0  0  0  0  0  0
   14.9460   -3.2113   -9.6676 F   0  0  0  0  0  0
   13.6595   -1.7163   -8.7241 F   0  0  0  0  0  0
   15.7954   -1.7037   -8.3784 F   0  0  0  0  0  0
   11.0224   -3.8802   -8.6084 C   0  0  0  0  0  0
   10.6316   -4.2818   -7.3252 C   0  0  0  0  0  0
    5.3414   -7.2814    2.2802 H   0  0  0  0  0  0
    6.4439   -5.9521    2.6970 H   0  0  0  0  0  0
    6.9886   -7.6410    2.7782 H   0  0  0  0  0  0
    8.8586   -7.1586    1.2496 H   0  0  0  0  0  0
    8.3401   -5.4693    1.1951 H   0  0  0  0  0  0
    9.7358   -5.9553   -0.7079 H   0  0  0  0  0  0
    8.7711   -7.3593   -1.1816 H   0  0  0  0  0  0
    5.7738   -5.0635   -1.9031 H   0  0  0  0  0  0
    6.1861   -6.7924   -1.9565 H   0  0  0  0  0  0
    5.9932   -4.9555    0.4887 H   0  0  0  0  0  0
    4.9218   -6.2962    0.0643 H   0  0  0  0  0  0
   10.2541   -4.5589   -2.2231 H   0  0  0  0  0  0
   10.9572   -3.8504   -4.4480 H   0  0  0  0  0  0
    7.0056   -4.8089   -5.8389 H   0  0  0  0  0  0
    7.7034   -2.6068   -7.1277 H   0  0  0  0  0  0
    9.6883   -1.9281  -10.9489 H   0  0  0  0  0  0
   11.6419   -2.7223  -12.2051 H   0  0  0  0  0  0
   12.3244   -1.9522  -10.7713 H   0  0  0  0  0  0
   13.2827   -4.2107  -11.0524 H   0  0  0  0  0  0
   11.6807   -4.9425  -11.1143 H   0  0  0  0  0  0
   13.9860   -5.4593   -9.3130 H   0  0  0  0  0  0
   12.6743   -6.1569   -8.3992 H   0  0  0  0  0  0
   13.3118   -6.4376   -6.2040 H   0  0  0  0  0  0
   15.4510   -3.4509   -3.9906 H   0  0  0  0  0  0
   15.6218   -2.0568   -6.0089 H   0  0  0  0  0  0
   11.2446   -4.9699   -6.7587 H   0  0  0  0  0  0
  1  2  1  0  0  0
  1 36  1  0  0  0
  1 37  1  0  0  0
  1 38  1  0  0  0
  2  7  1  0  0  0
  2  3  1  0  0  0
  3  4  1  0  0  0
  3 39  1  0  0  0
  3 40  1  0  0  0
  4  5  1  0  0  0
  4 41  1  0  0  0
  4 42  1  0  0  0
  5  6  1  0  0  0
  5  8  1  0  0  0
  6  7  1  0  0  0
  6 43  1  0  0  0
  6 44  1  0  0  0
  7 45  1  0  0  0
  7 46  1  0  0  0
  8  9  2  0  0  0
  8 13  1  0  0  0
  9 10  1  0  0  0
  9 47  1  0  0  0
 10 11  2  0  0  0
 10 48  1  0  0  0
 11 12  1  0  0  0
 11 14  1  0  0  0
 12 13  2  0  0  0
 12 49  1  0  0  0
 14 35  1  0  0  0
 14 15  2  0  0  0
 15 16  1  0  0  0
 15 50  1  0  0  0
 16 17  2  0  0  0
 17 34  1  0  0  0
 17 18  1  0  0  0
 18 19  1  0  0  0
 18 51  1  0  0  0
 19 20  1  0  0  0
 19 52  1  0  0  0
 19 53  1  0  0  0
 20 21  1  0  0  0
 20 54  1  0  0  0
 20 55  1  0  0  0
 21 34  1  0  0  0
 21 22  1  0  0  0
 22 23  1  0  0  0
 22 56  1  0  0  0
 22 57  1  0  0  0
 23 24  2  0  0  0
 23 29  1  0  0  0
 24 25  1  0  0  0
 24 58  1  0  0  0
 25 27  2  0  0  0
 25 26  1  0  0  0
 27 28  1  0  0  0
 27 59  1  0  0  0
 28 29  2  0  0  0
 28 60  1  0  0  0
 29 30  1  0  0  0
 30 33  1  0  0  0
 30 32  1  0  0  0
 30 31  1  0  0  0
 34 35  2  0  0  0
 35 61  1  0  0  0
M  END
> <s_m_entry_id>
127

> <s_m_entry_name>
CHEMBL1164180.1

> <s_m_job_name>
mmod_csearch_23

> <s_lp_label>
 _7

> <r_mmod_Potential_Energy-MMFF94s>
726.63385

> <b_mmod_Minimization_Converged-MMFF94s>
1

> <r_mmod_RMS_Derivative-MMFF94s>
0.012942

> <i_mmod_Times_Found-MMFF94s>
26

> <r_mmod_Relative_Potential_Energy-MMFF94s>
0

> <i_mmod_Conformation-MMFF94s>
1

> <i_mmod_Serial_Number-MMFF94s>
7

$$$$
