CHEMBL101311.smi
                    3D
 Structure written by MMmdl.
 53 55  0  0  1  0            999 V2000
    1.1526    2.5909    4.3349 C   0  0  0  0  0  0
    1.3446    2.6260    2.8806 N   0  0  0  0  0  0
    0.6097    3.7668    2.3221 C   0  0  0  0  0  0
    2.7835    2.7395    2.5268 C   0  0  0  0  0  0
    3.5418    1.4177    2.7848 C   0  0  1  0  0  0
    2.8112    0.3367    2.1901 O   0  0  0  0  0  0
    4.9602    1.4514    2.2079 C   0  0  0  0  0  0
    5.6991    2.5010    2.8334 O   0  0  0  0  0  0
    6.9905    2.6788    2.4239 C   0  0  0  0  0  0
    7.6627    1.9236    1.4676 C   0  0  0  0  0  0
    8.9956    2.2176    1.1404 C   0  0  0  0  0  0
    9.6860    3.2647    1.7566 C   0  0  0  0  0  0
   11.0115    3.6035    1.4715 N   0  0  0  0  0  0
   11.9774    3.1040    0.6029 C   0  0  0  0  0  0
   13.1569    3.7398    0.6512 N   0  0  0  0  0  0
   14.1247    3.2868   -0.1604 C   0  0  0  0  0  0
   13.9563    2.2367   -1.0271 C   0  0  0  0  0  0
   12.7142    1.6480   -1.0355 C   0  0  0  0  0  0
   12.3735    0.5669   -1.8443 N   0  0  0  0  0  0
   12.9077   -0.0421   -2.9929 C   0  0  0  0  0  0
   13.7827    0.6200   -3.8639 C   0  0  0  0  0  0
   14.3283   -0.0376   -4.9707 C   0  0  0  0  0  0
   15.3944    0.8104   -6.0228 Cl  0  0  0  0  0  0
   14.0161   -1.3679   -5.2346 C   0  0  0  0  0  0
   13.1427   -2.0467   -4.3883 C   0  0  0  0  0  0
   12.5960   -1.3899   -3.2809 C   0  0  0  0  0  0
   11.5135   -2.2827   -2.2655 Cl  0  0  0  0  0  0
   11.7368    2.0676   -0.2129 N   0  0  0  0  0  0
    8.9935    4.0146    2.7186 C   0  0  0  0  0  0
    7.6645    3.7261    3.0482 C   0  0  0  0  0  0
    1.5714    3.4750    4.8292 H   0  0  0  0  0  0
    1.6089    1.6983    4.7736 H   0  0  0  0  0  0
    0.0853    2.5355    4.5783 H   0  0  0  0  0  0
   -0.4590    3.6853    2.5505 H   0  0  0  0  0  0
    0.6933    3.7809    1.2296 H   0  0  0  0  0  0
    0.9752    4.7245    2.7102 H   0  0  0  0  0  0
    3.2594    3.5767    3.0522 H   0  0  0  0  0  0
    2.8502    2.9471    1.4504 H   0  0  0  0  0  0
    3.6028    1.2302    3.8624 H   0  0  0  0  0  0
    1.8705    0.5925    2.2974 H   0  0  0  0  0  0
    4.9082    1.6072    1.1225 H   0  0  0  0  0  0
    5.4396    0.4821    2.3955 H   0  0  0  0  0  0
    7.1888    1.0947    0.9521 H   0  0  0  0  0  0
    9.4774    1.6003    0.3888 H   0  0  0  0  0  0
   11.4084    4.3767    1.9847 H   0  0  0  0  0  0
   15.0760    3.8052   -0.0848 H   0  0  0  0  0  0
   14.7819    1.8863   -1.6268 H   0  0  0  0  0  0
   11.4748    0.1907   -1.5517 H   0  0  0  0  0  0
   14.0156    1.6703   -3.7203 H   0  0  0  0  0  0
   14.4416   -1.8765   -6.0959 H   0  0  0  0  0  0
   12.8916   -3.0845   -4.5929 H   0  0  0  0  0  0
    9.4846    4.8400    3.2283 H   0  0  0  0  0  0
    7.1556    4.3252    3.7989 H   0  0  0  0  0  0
  1  2  1  0  0  0
  1 31  1  0  0  0
  1 32  1  0  0  0
  1 33  1  0  0  0
  2  4  1  0  0  0
  2  3  1  0  0  0
  3 34  1  0  0  0
  3 35  1  0  0  0
  3 36  1  0  0  0
  4  5  1  0  0  0
  4 37  1  0  0  0
  4 38  1  0  0  0
  5  7  1  0  0  0
  5  6  1  0  0  0
  5 39  1  0  0  0
  6 40  1  0  0  0
  7  8  1  0  0  0
  7 41  1  0  0  0
  7 42  1  0  0  0
  8  9  1  0  0  0
  9 10  2  0  0  0
  9 30  1  0  0  0
 10 11  1  0  0  0
 10 43  1  0  0  0
 11 12  2  0  0  0
 11 44  1  0  0  0
 12 29  1  0  0  0
 12 13  1  0  0  0
 13 14  1  0  0  0
 13 45  1  0  0  0
 14 15  2  0  0  0
 14 28  1  0  0  0
 15 16  1  0  0  0
 16 17  2  0  0  0
 16 46  1  0  0  0
 17 18  1  0  0  0
 17 47  1  0  0  0
 18 28  2  0  0  0
 18 19  1  0  0  0
 19 20  1  0  0  0
 19 48  1  0  0  0
 20 21  2  0  0  0
 20 26  1  0  0  0
 21 22  1  0  0  0
 21 49  1  0  0  0
 22 24  2  0  0  0
 22 23  1  0  0  0
 24 25  1  0  0  0
 24 50  1  0  0  0
 25 26  2  0  0  0
 25 51  1  0  0  0
 26 27  1  0  0  0
 29 30  2  0  0  0
 29 52  1  0  0  0
 30 53  1  0  0  0
M  END
> <s_m_entry_id>
109

> <s_m_entry_name>
CHEMBL101311.1

> <s_m_job_name>
mmod_csearch_21

> <s_lp_label>
 _5

> <r_mmod_Potential_Energy-MMFF94s>
-53.251301

> <b_mmod_Minimization_Converged-MMFF94s>
1

> <r_mmod_RMS_Derivative-MMFF94s>
0.013268

> <i_mmod_Times_Found-MMFF94s>
61

> <r_mmod_Relative_Potential_Energy-MMFF94s>
0

> <i_mmod_Conformation-MMFF94s>
1

> <i_mmod_Serial_Number-MMFF94s>
5

$$$$
