CHEMBL1084546.smi
                    3D
 Structure written by MMmdl.
 55 58  0  0  1  0            999 V2000
    6.6538   -9.2306    5.3649 C   0  0  0  0  0  0
    7.3055   -7.9328    5.6179 N   0  0  0  0  0  0
    8.3057   -7.5520    4.6775 C   0  0  0  0  0  0
    9.2341   -8.5086    4.4489 N   0  0  0  0  0  0
   10.2557   -8.1834    3.6276 C   0  0  0  0  0  0
   10.4023   -6.9420    3.0363 C   0  0  0  0  0  0
    9.4371   -5.9752    3.2950 C   0  0  0  0  0  0
    8.3503   -6.2726    4.1289 C   0  0  0  0  0  0
    7.3016   -5.2272    4.3970 C   0  0  0  0  0  0
    7.8136   -4.2568    5.3481 N   0  0  0  0  0  0
    7.0918   -3.0927    5.5656 C   0  0  0  0  0  0
    5.9027   -2.9584    4.9444 N   0  0  0  0  0  0
    5.1910   -1.8362    5.1153 C   0  0  0  0  0  0
    3.9548   -1.6431    4.5060 N   0  0  0  0  0  0
    3.1212   -2.4522    3.7245 C   0  0  0  0  0  0
    1.9832   -1.8550    3.1226 C   0  0  0  0  0  0
    1.1041   -2.5795    2.3081 C   0  0  0  0  0  0
    1.3895   -3.9084    2.1066 C   0  0  0  0  0  0
    0.6812   -4.8270    1.3500 N   0  0  0  0  0  0
    1.2830   -6.0795    1.3872 C   0  0  0  0  0  0
    0.8839   -7.0798    0.8145 O   0  0  0  0  0  0
    2.5297   -5.9666    2.2730 C   0  0  0  0  0  0
    2.4970   -4.5239    2.6773 C   0  0  0  0  0  0
    3.3698   -3.8111    3.4831 C   0  0  0  0  0  0
    5.6213   -0.8109    5.8597 N   0  0  0  0  0  0
    6.8192   -0.9548    6.4542 C   0  0  0  0  0  0
    7.6047   -2.0803    6.3447 C   0  0  0  0  0  0
    8.9428   -2.1332    6.9845 C   0  0  0  0  0  0
    9.1167   -1.1579    7.9266 F   0  0  0  0  0  0
    9.2041   -3.3008    7.6328 F   0  0  0  0  0  0
    9.9630   -1.9544    6.0986 F   0  0  0  0  0  0
    7.6916   -7.5797    7.2283 S   0  0  0  0  0  0
    8.2463   -6.2410    7.3008 O   0  0  0  0  0  0
    6.5411   -7.9288    8.0384 O   0  0  0  0  0  0
    8.9909   -8.7379    7.6268 C   0  0  0  0  0  0
    5.7563   -9.3350    5.9819 H   0  0  0  0  0  0
    7.3244  -10.0719    5.5606 H   0  0  0  0  0  0
    6.3245   -9.2869    4.3212 H   0  0  0  0  0  0
   10.9837   -8.9718    3.4565 H   0  0  0  0  0  0
   11.2488   -6.7285    2.3926 H   0  0  0  0  0  0
    9.5308   -4.9847    2.8537 H   0  0  0  0  0  0
    6.3755   -5.6802    4.7697 H   0  0  0  0  0  0
    7.0540   -4.7477    3.4403 H   0  0  0  0  0  0
    8.2266   -4.6852    6.1855 H   0  0  0  0  0  0
    3.6219   -0.7168    4.7295 H   0  0  0  0  0  0
    1.7783   -0.7992    3.2892 H   0  0  0  0  0  0
    0.2406   -2.1034    1.8592 H   0  0  0  0  0  0
   -0.1627   -4.6408    0.8301 H   0  0  0  0  0  0
    2.4275   -6.6276    3.1372 H   0  0  0  0  0  0
    3.4208   -6.1977    1.6843 H   0  0  0  0  0  0
    4.2196   -4.3185    3.9236 H   0  0  0  0  0  0
    7.1383   -0.0939    7.0383 H   0  0  0  0  0  0
    8.6388   -9.7562    7.4606 H   0  0  0  0  0  0
    9.2296   -8.6079    8.6855 H   0  0  0  0  0  0
    9.8772   -8.5161    7.0322 H   0  0  0  0  0  0
  1  2  1  0  0  0
  1 36  1  0  0  0
  1 37  1  0  0  0
  1 38  1  0  0  0
  2 32  1  0  0  0
  2  3  1  0  0  0
  3  4  2  0  0  0
  3  8  1  0  0  0
  4  5  1  0  0  0
  5  6  2  0  0  0
  5 39  1  0  0  0
  6  7  1  0  0  0
  6 40  1  0  0  0
  7  8  2  0  0  0
  7 41  1  0  0  0
  8  9  1  0  0  0
  9 10  1  0  0  0
  9 42  1  0  0  0
  9 43  1  0  0  0
 10 11  1  0  0  0
 10 44  1  0  0  0
 11 27  1  0  0  0
 11 12  2  0  0  0
 12 13  1  0  0  0
 13 25  2  0  0  0
 13 14  1  0  0  0
 14 15  1  0  0  0
 14 45  1  0  0  0
 15 16  2  0  0  0
 15 24  1  0  0  0
 16 17  1  0  0  0
 16 46  1  0  0  0
 17 18  2  0  0  0
 17 47  1  0  0  0
 18 23  1  0  0  0
 18 19  1  0  0  0
 19 20  1  0  0  0
 19 48  1  0  0  0
 20 22  1  0  0  0
 20 21  2  0  0  0
 22 23  1  0  0  0
 22 49  1  0  0  0
 22 50  1  0  0  0
 23 24  2  0  0  0
 24 51  1  0  0  0
 25 26  1  0  0  0
 26 27  2  0  0  0
 26 52  1  0  0  0
 27 28  1  0  0  0
 28 31  1  0  0  0
 28 30  1  0  0  0
 28 29  1  0  0  0
 32 35  1  0  0  0
 32 34  2  0  0  0
 32 33  2  0  0  0
 35 53  1  0  0  0
 35 54  1  0  0  0
 35 55  1  0  0  0
M  END
> <s_m_entry_id>
10195

> <s_m_job_name>
mmod_csearch_13

> <r_mmod_Potential_Energy-MMFF94s>
-706.752991

> <b_mmod_Minimization_Converged-MMFF94s>
0

> <r_mmod_RMS_Derivative-MMFF94s>
0.023766

> <i_mmod_Times_Found-MMFF94s>
130

> <r_mmod_Relative_Potential_Energy-MMFF94s>
0

> <i_mmod_Conformation-MMFF94s>
1

> <s_lp_label>
 _64

> <i_mmod_Serial_Number-MMFF94s>
64

$$$$
