CHEMBL1964441.smi
                    3D
 Structure written by MMmdl.
 55 58  0  0  1  0            999 V2000
    3.0893    1.5883    7.3310 C   0  0  0  0  0  0
    3.1406    3.0268    7.5468 N   0  0  0  0  0  0
    4.1504    3.3706    8.5437 C   0  0  0  0  0  0
    4.1928    4.8265    8.7148 C   0  0  0  0  0  0
    4.2307    6.0192    8.8553 C   0  0  0  0  0  0
    4.2625    7.4358    9.0190 C   0  0  0  0  0  0
    3.1192    8.2042    8.9583 C   0  0  0  0  0  0
    3.0971    9.5412    9.1090 N   0  0  0  0  0  0
    4.2469   10.2128    9.3370 C   0  0  0  0  0  0
    4.1065   11.5695    9.4982 N   0  0  0  0  0  0
    5.4853    9.5151    9.4049 C   0  0  0  0  0  0
    6.8436    9.9864    9.6153 C   0  0  0  0  0  0
    7.7693    8.9665    9.6256 C   0  0  0  0  0  0
    7.0566    7.4467    9.3774 S   0  0  0  0  0  0
    5.4672    8.1178    9.2478 C   0  0  0  0  0  0
    7.2954   11.3566    9.7899 C   0  0  0  0  0  0
    7.5110   11.8706   11.0699 C   0  0  0  0  0  0
    7.9297   13.1964   11.2360 C   0  0  0  0  0  0
    8.1363   14.0212   10.1282 C   0  0  0  0  0  0
    8.5582   15.3655   10.2067 N   0  0  0  0  0  0
    8.8031   16.1161   11.3505 C   0  0  0  0  0  0
    8.6483   15.7128   12.4952 O   0  0  0  0  0  0
    9.2462   17.3866   11.0064 N   0  0  0  0  0  0
    9.5674   18.4558   11.8711 C   0  0  0  0  0  0
    9.4542   18.4025   13.2601 C   0  0  0  0  0  0
    9.7992   19.5090   14.0416 C   0  0  0  0  0  0
   10.2554   20.6812   13.4417 C   0  0  0  0  0  0
   10.3607   20.7623   12.0510 C   0  0  0  0  0  0
   10.8824   22.0089   11.4001 C   0  0  0  0  0  0
   10.0261   19.6412   11.2760 C   0  0  0  0  0  0
    7.9190   13.4964    8.8465 C   0  0  0  0  0  0
    7.5002   12.1731    8.6758 C   0  0  0  0  0  0
    2.3229    1.3590    6.5841 H   0  0  0  0  0  0
    2.8208    1.0588    8.2509 H   0  0  0  0  0  0
    4.0450    1.2023    6.9614 H   0  0  0  0  0  0
    3.3745    3.4920    6.6705 H   0  0  0  0  0  0
    5.1381    3.0121    8.2309 H   0  0  0  0  0  0
    3.9096    2.9004    9.5040 H   0  0  0  0  0  0
    2.1480    7.7491    8.7818 H   0  0  0  0  0  0
    3.1618   11.9227    9.4634 H   0  0  0  0  0  0
    4.8736   12.1677    9.7535 H   0  0  0  0  0  0
    8.8401    9.0434    9.7628 H   0  0  0  0  0  0
    7.3520   11.2507   11.9500 H   0  0  0  0  0  0
    8.0865   13.5502   12.2504 H   0  0  0  0  0  0
    8.6740   15.8390    9.3255 H   0  0  0  0  0  0
    9.3763   17.5707   10.0252 H   0  0  0  0  0  0
    9.1025   17.5133   13.7730 H   0  0  0  0  0  0
    9.7123   19.4499   15.1237 H   0  0  0  0  0  0
   10.5260   21.5288   14.0673 H   0  0  0  0  0  0
   11.9691   21.9456   11.2880 H   0  0  0  0  0  0
   10.6394   22.8938   11.9977 H   0  0  0  0  0  0
   10.4314   22.1511   10.4124 H   0  0  0  0  0  0
   10.1291   19.7050   10.1954 H   0  0  0  0  0  0
    8.0691   14.1076    7.9602 H   0  0  0  0  0  0
    7.3309   11.7883    7.6723 H   0  0  0  0  0  0
  1  2  1  0  0  0
  1 33  1  0  0  0
  1 34  1  0  0  0
  1 35  1  0  0  0
  2  3  1  0  0  0
  2 36  1  0  0  0
  3  4  1  0  0  0
  3 37  1  0  0  0
  3 38  1  0  0  0
  4  5  3  0  0  0
  5  6  1  0  0  0
  6  7  2  0  0  0
  6 15  1  0  0  0
  7  8  1  0  0  0
  7 39  1  0  0  0
  8  9  2  0  0  0
  9 11  1  0  0  0
  9 10  1  0  0  0
 10 40  1  0  0  0
 10 41  1  0  0  0
 11 15  2  0  0  0
 11 12  1  0  0  0
 12 13  2  0  0  0
 12 16  1  0  0  0
 13 14  1  0  0  0
 13 42  1  0  0  0
 14 15  1  0  0  0
 16 17  2  0  0  0
 16 32  1  0  0  0
 17 18  1  0  0  0
 17 43  1  0  0  0
 18 19  2  0  0  0
 18 44  1  0  0  0
 19 31  1  0  0  0
 19 20  1  0  0  0
 20 21  1  0  0  0
 20 45  1  0  0  0
 21 23  1  0  0  0
 21 22  2  0  0  0
 23 24  1  0  0  0
 23 46  1  0  0  0
 24 25  2  0  0  0
 24 30  1  0  0  0
 25 26  1  0  0  0
 25 47  1  0  0  0
 26 27  2  0  0  0
 26 48  1  0  0  0
 27 28  1  0  0  0
 27 49  1  0  0  0
 28 30  2  0  0  0
 28 29  1  0  0  0
 29 50  1  0  0  0
 29 51  1  0  0  0
 29 52  1  0  0  0
 30 53  1  0  0  0
 31 32  2  0  0  0
 31 54  1  0  0  0
 32 55  1  0  0  0
M  END
> <s_m_entry_id>
133

> <s_m_entry_name>
CHEMBL1964441.1

> <s_m_job_name>
mmod_csearch_24

> <s_lp_label>
 _5

> <r_mmod_Potential_Energy-MMFF94s>
-152.473358

> <b_mmod_Minimization_Converged-MMFF94s>
1

> <r_mmod_RMS_Derivative-MMFF94s>
0.010933

> <i_mmod_Times_Found-MMFF94s>
57

> <r_mmod_Relative_Potential_Energy-MMFF94s>
0

> <i_mmod_Conformation-MMFF94s>
1

> <i_mmod_Serial_Number-MMFF94s>
5

$$$$
