CHEMBL2001613.smi
                    3D
 Structure written by MMmdl.
 16 17  0  0  1  0            999 V2000
    6.1447    0.6174    0.6442 Br  0  0  0  0  0  0
    4.9136   -0.4175   -0.3517 C   0  0  0  0  0  0
    4.1201   -1.3742    0.3129 C   0  0  0  0  0  0
    3.1980   -2.1594   -0.3947 C   0  0  0  0  0  0
    3.0800   -1.9568   -1.7539 C   0  0  0  0  0  0
    2.2852   -2.6499   -2.6651 N   0  0  0  0  0  0
    2.5454   -2.0436   -3.8968 N   0  0  0  0  0  0
    3.5270   -1.0721   -3.8030 C   0  0  0  0  0  0
    4.0018   -0.3943   -4.6922 O   0  0  0  0  0  0
    3.8935   -1.0149   -2.3874 C   0  0  0  0  0  0
    4.8112   -0.2242   -1.7269 C   0  0  0  0  0  0
    4.2235   -1.5168    1.3867 H   0  0  0  0  0  0
    2.6033   -2.9076    0.1180 H   0  0  0  0  0  0
    1.3613   -2.9882   -2.4187 H   0  0  0  0  0  0
    2.1209   -2.3566   -4.7612 H   0  0  0  0  0  0
    5.4116    0.5001   -2.2648 H   0  0  0  0  0  0
  1  2  1  0  0  0
  2  3  2  0  0  0
  2 11  1  0  0  0
  3  4  1  0  0  0
  3 12  1  0  0  0
  4  5  2  0  0  0
  4 13  1  0  0  0
  5  6  1  0  0  0
  5 10  1  0  0  0
  6  7  1  0  0  0
  6 14  1  0  0  0
  7  8  1  0  0  0
  7 15  1  0  0  0
  8  9  2  0  0  0
  8 10  1  0  0  0
 10 11  2  0  0  0
 11 16  1  0  0  0
M  END
> <s_m_entry_id>
784

> <s_m_job_name>
mmod_csearch_9

> <r_mmod_Potential_Energy-MMFF94s>
232.873596

> <b_mmod_Minimization_Converged-MMFF94s>
1

> <r_mmod_RMS_Derivative-MMFF94s>
0.006158

> <i_mmod_Times_Found-MMFF94s>
1

> <r_mmod_Relative_Potential_Energy-MMFF94s>
0

> <i_mmod_Conformation-MMFF94s>
1

> <s_lp_label>
 _27

> <i_mmod_Serial_Number-MMFF94s>
27

$$$$
