CHEMBL1991867.smi
                    3D
 Structure written by MMmdl.
 13 14  0  0  1  0            999 V2000
    1.0328   -0.1410   -0.0178 N   0  0  0  0  0  0
    2.3553    0.0503   -0.0160 C   0  0  0  0  0  0
    3.2447   -0.9595   -0.0144 N   0  0  0  0  0  0
    4.4077   -0.2466   -0.0129 N   0  0  0  0  0  0
    5.2966   -0.7321   -0.0115 H   0  0  0  0  0  0
    4.2662    1.1100   -0.0136 C   0  0  0  0  0  0
    5.1615    2.1150   -0.0127 N   0  0  0  0  0  0
    4.4289    3.2129   -0.0141 C   0  0  0  0  0  0
    5.1326    4.7809   -0.0136 Cl  0  0  0  0  0  0
    2.7036    3.0687   -0.0165 S   0  0  0  0  0  0
    2.9354    1.3614   -0.0156 C   0  0  0  0  0  0
    0.3470    0.6033   -0.0191 H   0  0  0  0  0  0
    0.6674   -1.0867   -0.0180 H   0  0  0  0  0  0
  1  2  1  0  0  0
  1 12  1  0  0  0
  1 13  1  0  0  0
  2 11  1  0  0  0
  2  3  2  0  0  0
  3  4  1  0  0  0
  4  6  1  0  0  0
  4  5  1  0  0  0
  6 11  2  0  0  0
  6  7  1  0  0  0
  7  8  2  0  0  0
  8 10  1  0  0  0
  8  9  1  0  0  0
 10 11  1  0  0  0
M  END
> <s_m_entry_id>
175

> <s_m_entry_name>
CHEMBL1991867.1

> <s_m_job_name>
mmod_csearch_27

> <s_lp_label>
 _23

> <r_mmod_Potential_Energy-MMFF94s>
-98.613388

> <b_mmod_Minimization_Converged-MMFF94s>
1

> <r_mmod_RMS_Derivative-MMFF94s>
0.005526

> <i_mmod_Times_Found-MMFF94s>
500

> <r_mmod_Relative_Potential_Energy-MMFF94s>
0

> <i_mmod_Conformation-MMFF94s>
1

> <i_mmod_Serial_Number-MMFF94s>
23

$$$$
