CHEMBL1974875.smi
                    3D
 Structure written by MMmdl.
 22 23  0  0  1  0            999 V2000
    4.2001    3.6844    0.5378 O   0  0  0  0  0  0
    2.9830    3.6286    1.1425 C   0  0  0  0  0  0
    2.6571    4.4192    2.0159 O   0  0  0  0  0  0
    2.1404    2.5308    0.6782 C   0  0  0  0  0  0
    1.1818    1.9723    1.4983 C   0  0  0  0  0  0
    0.4237    0.6271    0.7940 S   0  0  0  0  0  0
    1.3073    0.7935   -0.6811 C   0  0  0  0  0  0
    0.9958   -0.1744   -1.7239 C   0  0  0  0  0  0
    0.3926   -1.2330   -1.5289 O   0  0  0  0  0  0
    1.3703    0.0589   -3.0227 N   0  0  0  0  0  0
    1.9979    1.2383   -3.5732 C   0  0  0  0  0  0
    3.2745    1.6223   -2.8319 C   0  0  0  0  0  0
    2.9852    2.3441   -1.6005 N   0  0  0  0  0  0
    2.1722    1.8767   -0.6110 C   0  0  0  0  0  0
    4.3289    2.8892   -0.0219 H   0  0  0  0  0  0
    0.9240    2.2749    2.5059 H   0  0  0  0  0  0
    1.0612   -0.6731   -3.6504 H   0  0  0  0  0  0
    1.2639    2.0516   -3.5648 H   0  0  0  0  0  0
    2.2356    1.0014   -4.6156 H   0  0  0  0  0  0
    3.8703    2.2822   -3.4726 H   0  0  0  0  0  0
    3.8906    0.7419   -2.6134 H   0  0  0  0  0  0
    3.2481    3.3326   -1.6365 H   0  0  0  0  0  0
  1  2  1  0  0  0
  1 15  1  0  0  0
  2  4  1  0  0  0
  2  3  2  0  0  0
  4  5  2  0  0  0
  4 14  1  0  0  0
  5  6  1  0  0  0
  5 16  1  0  0  0
  6  7  1  0  0  0
  7  8  1  0  0  0
  7 14  2  0  0  0
  8 10  1  0  0  0
  8  9  2  0  0  0
 10 11  1  0  0  0
 10 17  1  0  0  0
 11 12  1  0  0  0
 11 18  1  0  0  0
 11 19  1  0  0  0
 12 13  1  0  0  0
 12 20  1  0  0  0
 12 21  1  0  0  0
 13 14  1  0  0  0
 13 22  1  0  0  0
M  END
> <s_m_entry_id>
724

> <s_m_job_name>
mmod_csearch_9

> <r_mmod_Potential_Energy-MMFF94s>
10.757032

> <b_mmod_Minimization_Converged-MMFF94s>
1

> <r_mmod_RMS_Derivative-MMFF94s>
0.001662

> <i_mmod_Times_Found-MMFF94s>
544

> <r_mmod_Relative_Potential_Energy-MMFF94s>
0

> <i_mmod_Conformation-MMFF94s>
1

> <s_lp_label>
 _9

> <i_mmod_Serial_Number-MMFF94s>
9

$$$$
