CHEMBL2003785.smi
                    3D
 Structure written by MMmdl.
 28 30  0  0  1  0            999 V2000
   10.9880    4.8377    9.2340 F   0  0  0  0  0  0
   10.2740    5.0172    8.1148 C   0  0  0  0  0  0
    9.1480    4.2340    7.8898 C   0  0  0  0  0  0
    8.4091    4.4137    6.7220 C   0  0  0  0  0  0
    8.8009    5.3799    5.7914 C   0  0  0  0  0  0
    9.9306    6.1816    6.0241 C   0  0  0  0  0  0
   10.3678    7.2071    5.0042 C   0  0  0  0  0  0
   11.2447    6.5780    4.0505 N   0  0  0  0  0  0
   11.8071    7.2562    2.9954 C   0  0  0  0  0  0
   12.6201    6.5350    2.1781 N   0  0  0  0  0  0
   13.2026    7.1481    1.1245 C   0  0  0  0  0  0
   13.0928    8.4348    0.7407 N   0  0  0  0  0  0
   12.2841    9.1037    1.5732 C   0  0  0  0  0  0
   11.9446   10.4225    1.4929 N   0  0  0  0  0  0
   12.2673   11.0643    0.7849 H   0  0  0  0  0  0
   11.1023   10.6966    2.5348 C   0  0  0  0  0  0
   10.8808    9.6337    3.2787 N   0  0  0  0  0  0
   11.6182    8.6207    2.6876 C   0  0  0  0  0  0
   10.6737    5.9819    7.1958 C   0  0  0  0  0  0
    8.8581    3.4872    8.6216 H   0  0  0  0  0  0
    7.5316    3.8007    6.5328 H   0  0  0  0  0  0
    8.2237    5.5049    4.8767 H   0  0  0  0  0  0
   10.8736    8.0332    5.5191 H   0  0  0  0  0  0
    9.4798    7.6209    4.5107 H   0  0  0  0  0  0
   11.4868    5.6012    4.1330 H   0  0  0  0  0  0
   13.8410    6.5207    0.5090 H   0  0  0  0  0  0
   10.6859   11.6821    2.6982 H   0  0  0  0  0  0
   11.5651    6.5686    7.3986 H   0  0  0  0  0  0
  1  2  1  0  0  0
  2  3  2  0  0  0
  2 19  1  0  0  0
  3  4  1  0  0  0
  3 20  1  0  0  0
  4  5  2  0  0  0
  4 21  1  0  0  0
  5  6  1  0  0  0
  5 22  1  0  0  0
  6  7  1  0  0  0
  6 19  2  0  0  0
  7  8  1  0  0  0
  7 23  1  0  0  0
  7 24  1  0  0  0
  8  9  1  0  0  0
  8 25  1  0  0  0
  9 10  2  0  0  0
  9 18  1  0  0  0
 10 11  1  0  0  0
 11 12  2  0  0  0
 11 26  1  0  0  0
 12 13  1  0  0  0
 13 14  1  0  0  0
 13 18  2  0  0  0
 14 16  1  0  0  0
 14 15  1  0  0  0
 16 17  2  0  0  0
 16 27  1  0  0  0
 17 18  1  0  0  0
 19 28  1  0  0  0
M  END
> <s_m_entry_id>
732

> <s_m_job_name>
mmod_csearch_9

> <r_mmod_Potential_Energy-MMFF94s>
48.802776

> <b_mmod_Minimization_Converged-MMFF94s>
1

> <r_mmod_RMS_Derivative-MMFF94s>
0.009269

> <i_mmod_Times_Found-MMFF94s>
276

> <r_mmod_Relative_Potential_Energy-MMFF94s>
0

> <i_mmod_Conformation-MMFF94s>
1

> <s_lp_label>
 _10

> <i_mmod_Serial_Number-MMFF94s>
10

$$$$
