CHEMBL1966799.smi
                    3D
 Structure written by MMmdl.
 16 17  0  0  1  0            999 V2000
    1.0402   -0.0871    0.0522 N   0  0  0  0  0  0
    2.3835   -0.0609    0.0517 C   0  0  0  0  0  0
    3.1411    1.0142    0.0514 N   0  0  0  0  0  0
    4.4583    0.6241    0.0509 N   0  0  0  0  0  0
    4.4850   -0.6889    0.0510 C   0  0  0  0  0  0
    5.5637   -1.6139    0.0506 C   0  0  0  0  0  0
    5.3065   -2.9347    0.0508 C   0  0  0  0  0  0
    3.9421   -3.4378    0.0513 C   0  0  0  0  0  0
    2.9112   -2.5694    0.0517 C   0  0  0  0  0  0
    1.2958   -3.1827    0.0523 Cl  0  0  0  0  0  0
    3.1864   -1.1931    0.0515 N   0  0  0  0  0  0
    0.4882   -0.9376    0.0525 H   0  0  0  0  0  0
    0.5256    0.7874    0.0523 H   0  0  0  0  0  0
    6.5781   -1.2296    0.0503 H   0  0  0  0  0  0
    6.1170   -3.6582    0.0505 H   0  0  0  0  0  0
    3.7936   -4.5133    0.0515 H   0  0  0  0  0  0
  1  2  1  0  0  0
  1 12  1  0  0  0
  1 13  1  0  0  0
  2 11  1  0  0  0
  2  3  2  0  0  0
  3  4  1  0  0  0
  4  5  2  0  0  0
  5 11  1  0  0  0
  5  6  1  0  0  0
  6  7  2  0  0  0
  6 14  1  0  0  0
  7  8  1  0  0  0
  7 15  1  0  0  0
  8  9  2  0  0  0
  8 16  1  0  0  0
  9 11  1  0  0  0
  9 10  1  0  0  0
M  END
> <s_m_entry_id>
138

> <s_m_entry_name>
CHEMBL1966799.1

> <s_m_job_name>
mmod_csearch_25

> <s_lp_label>
 _2

> <r_mmod_Potential_Energy-MMFF94s>
118.04348

> <b_mmod_Minimization_Converged-MMFF94s>
1

> <r_mmod_RMS_Derivative-MMFF94s>
0.005584

> <i_mmod_Times_Found-MMFF94s>
500

> <r_mmod_Relative_Potential_Energy-MMFF94s>
0

> <i_mmod_Conformation-MMFF94s>
1

> <i_mmod_Serial_Number-MMFF94s>
2

$$$$
