CHEMBL565612.smi
                    3D
 Structure written by MMmdl.
 55 60  0  0  1  0            999 V2000
    9.2625   -2.5255   -8.8970 C   0  0  0  0  0  0
   10.0579   -1.5751   -8.1222 N   0  0  0  0  0  0
   10.9585   -2.2975   -7.1850 C   0  0  0  0  0  0
   11.7513   -1.3377   -6.2618 C   0  0  0  0  0  0
   10.8216   -0.4556   -5.5525 N   0  0  0  0  0  0
    9.9568    0.3146   -6.4508 C   0  0  0  0  0  0
    9.1676   -0.6584   -7.3622 C   0  0  0  0  0  0
   10.2680   -0.9075   -4.3693 C   0  0  0  0  0  0
    9.2096   -0.2634   -3.8692 N   0  0  0  0  0  0
    8.6532   -0.7215   -2.7282 C   0  0  0  0  0  0
    7.4975    0.0605   -2.2935 C   0  0  0  0  0  0
    6.4001    0.3915   -2.9977 C   0  0  0  0  0  0
    5.5912    1.2886   -2.1340 C   0  0  0  0  0  0
    4.5206    1.8015   -2.4054 O   0  0  0  0  0  0
    6.2556    1.4350   -0.9703 N   0  0  0  0  0  0
    7.4057    0.7360   -0.9863 C   0  0  0  0  0  0
    8.2120    0.6657   -0.0776 O   0  0  0  0  0  0
    6.0084    0.0303   -4.3169 C   0  0  0  0  0  0
    5.5854    0.9371   -5.2661 C   0  0  0  0  0  0
    5.2876    0.2484   -6.4099 N   0  0  0  0  0  0
    4.9432    0.6617   -7.2656 H   0  0  0  0  0  0
    5.5072   -1.0972   -6.2258 C   0  0  0  0  0  0
    5.3394   -2.1624   -7.1193 C   0  0  0  0  0  0
    5.6318   -3.4484   -6.6591 C   0  0  0  0  0  0
    6.0647   -3.6591   -5.3536 C   0  0  0  0  0  0
    6.2217   -2.5838   -4.4710 C   0  0  0  0  0  0
    5.9534   -1.2696   -4.9119 C   0  0  0  0  0  0
    9.1302   -1.8468   -2.0463 C   0  0  0  0  0  0
    8.5845   -2.4227   -0.8657 C   0  0  0  0  0  0
    9.1571   -3.5551   -0.2911 C   0  0  0  0  0  0
   10.2715   -4.1283   -0.8847 C   0  0  0  0  0  0
   10.7997   -3.5663   -2.0494 C   0  0  0  0  0  0
   10.2452   -2.4384   -2.6424 C   0  0  0  0  0  0
   10.7990   -1.9797   -3.7686 N   0  0  0  0  0  0
    9.9147   -3.1778   -9.4880 H   0  0  0  0  0  0
    8.6180   -1.9964   -9.6076 H   0  0  0  0  0  0
    8.6298   -3.1556   -8.2617 H   0  0  0  0  0  0
   11.6777   -2.8903   -7.7627 H   0  0  0  0  0  0
   10.3783   -2.9949   -6.5661 H   0  0  0  0  0  0
   12.4157   -0.7199   -6.8802 H   0  0  0  0  0  0
   12.4089   -1.8996   -5.5884 H   0  0  0  0  0  0
   10.5873    0.9581   -7.0785 H   0  0  0  0  0  0
    9.2739    0.9902   -5.9231 H   0  0  0  0  0  0
    8.4739   -1.2420   -6.7460 H   0  0  0  0  0  0
    8.5715   -0.0656   -8.0659 H   0  0  0  0  0  0
    5.9360    1.9970   -0.1998 H   0  0  0  0  0  0
    5.4618    2.0120   -5.2252 H   0  0  0  0  0  0
    4.9929   -2.0020   -8.1351 H   0  0  0  0  0  0
    5.5123   -4.2968   -7.3290 H   0  0  0  0  0  0
    6.2801   -4.6686   -5.0117 H   0  0  0  0  0  0
    6.5464   -2.7756   -3.4541 H   0  0  0  0  0  0
    7.7145   -1.9883   -0.3802 H   0  0  0  0  0  0
    8.7385   -3.9807    0.6175 H   0  0  0  0  0  0
   10.7349   -5.0093   -0.4481 H   0  0  0  0  0  0
   11.6726   -4.0245   -2.5102 H   0  0  0  0  0  0
  1  2  1  0  0  0
  1 35  1  0  0  0
  1 36  1  0  0  0
  1 37  1  0  0  0
  2  3  1  0  0  0
  2  7  1  0  0  0
  3  4  1  0  0  0
  3 38  1  0  0  0
  3 39  1  0  0  0
  4  5  1  0  0  0
  4 40  1  0  0  0
  4 41  1  0  0  0
  5  8  1  0  0  0
  5  6  1  0  0  0
  6  7  1  0  0  0
  6 42  1  0  0  0
  6 43  1  0  0  0
  7 44  1  0  0  0
  7 45  1  0  0  0
  8  9  2  0  0  0
  8 34  1  0  0  0
  9 10  1  0  0  0
 10 28  2  0  0  0
 10 11  1  0  0  0
 11 12  2  0  0  0
 11 16  1  0  0  0
 12 18  1  0  0  0
 12 13  1  0  0  0
 13 15  1  0  0  0
 13 14  2  0  0  0
 15 16  1  0  0  0
 15 46  1  0  0  0
 16 17  2  0  0  0
 18 19  2  0  0  0
 18 27  1  0  0  0
 19 20  1  0  0  0
 19 47  1  0  0  0
 20 22  1  0  0  0
 20 21  1  0  0  0
 22 23  2  0  0  0
 22 27  1  0  0  0
 23 24  1  0  0  0
 23 48  1  0  0  0
 24 25  2  0  0  0
 24 49  1  0  0  0
 25 26  1  0  0  0
 25 50  1  0  0  0
 26 27  2  0  0  0
 26 51  1  0  0  0
 28 29  1  0  0  0
 28 33  1  0  0  0
 29 30  2  0  0  0
 29 52  1  0  0  0
 30 31  1  0  0  0
 30 53  1  0  0  0
 31 32  2  0  0  0
 31 54  1  0  0  0
 32 33  1  0  0  0
 32 55  1  0  0  0
 33 34  2  0  0  0
M  END
> <s_m_entry_id>
10161

> <s_m_job_name>
mmod_csearch_13

> <r_mmod_Potential_Energy-MMFF94s>
-94.267151

> <b_mmod_Minimization_Converged-MMFF94s>
0

> <r_mmod_RMS_Derivative-MMFF94s>
0.050356

> <i_mmod_Times_Found-MMFF94s>
78

> <r_mmod_Relative_Potential_Energy-MMFF94s>
0

> <i_mmod_Conformation-MMFF94s>
1

> <s_lp_label>
 _30

> <i_mmod_Serial_Number-MMFF94s>
30

$$$$
