CHEMBL1973793.smi
                    3D
 Structure written by MMmdl.
 39 42  0  0  1  0            999 V2000
    1.3352    0.1417   -1.7224 O   0  0  0  0  0  0
    2.6904    0.0785   -1.4041 N   0  0  0  0  0  0
    3.1210   -1.1381   -1.2977 C   0  0  0  0  0  0
    2.4710   -2.4540   -1.4450 C   0  0  0  0  0  0
    1.1588   -2.7865   -1.7522 C   0  0  0  0  0  0
    0.8141   -4.1388   -1.8294 C   0  0  0  0  0  0
    1.7737   -5.1341   -1.6018 C   0  0  0  0  0  0
    3.0906   -4.7859   -1.2936 C   0  0  0  0  0  0
    3.4405   -3.4200   -1.2147 C   0  0  0  0  0  0
    4.6623   -2.8184   -0.9313 C   0  0  0  0  0  0
    5.9346   -3.3570   -0.6365 C   0  0  0  0  0  0
    7.0036   -2.4847   -0.4019 C   0  0  0  0  0  0
    6.8142   -1.0947   -0.4556 C   0  0  0  0  0  0
    7.9161   -0.2105   -0.2857 N   0  0  0  0  0  0
    9.1340   -0.1862   -1.4604 S   0  0  0  0  0  0
    9.9199    1.0017   -1.2014 O   0  0  0  0  0  0
    9.7510   -1.4924   -1.5414 O   0  0  0  0  0  0
    8.2279    0.0890   -2.9660 C   0  0  0  0  0  0
    7.9336    1.3974   -3.3643 C   0  0  0  0  0  0
    7.2103    1.6102   -4.5379 C   0  0  0  0  0  0
    6.7915    0.5224   -5.3075 C   0  0  0  0  0  0
    7.1075   -0.7772   -4.9082 C   0  0  0  0  0  0
    6.5328   -2.2446   -5.9516 Br  0  0  0  0  0  0
    7.8360   -1.0043   -3.7442 C   0  0  0  0  0  0
    5.5581   -0.5597   -0.7366 C   0  0  0  0  0  0
    4.5180   -1.4481   -0.9685 C   0  0  0  0  0  0
    1.1743    1.1026   -1.7599 H   0  0  0  0  0  0
    0.4072   -2.0269   -1.9312 H   0  0  0  0  0  0
   -0.2089   -4.4207   -2.0693 H   0  0  0  0  0  0
    1.4903   -6.1821   -1.6663 H   0  0  0  0  0  0
    3.8311   -5.5609   -1.1190 H   0  0  0  0  0  0
    6.0894   -4.4313   -0.5961 H   0  0  0  0  0  0
    7.9862   -2.8957   -0.1770 H   0  0  0  0  0  0
    7.7252    0.7228    0.0769 H   0  0  0  0  0  0
    8.2612    2.2489   -2.7717 H   0  0  0  0  0  0
    6.9717    2.6228   -4.8554 H   0  0  0  0  0  0
    6.2232    0.6981   -6.2179 H   0  0  0  0  0  0
    8.0843   -2.0179   -3.4385 H   0  0  0  0  0  0
    5.3833    0.5087   -0.7957 H   0  0  0  0  0  0
  1  2  1  0  0  0
  1 27  1  0  0  0
  2  3  2  0  0  0
  3  4  1  0  0  0
  3 26  1  0  0  0
  4  9  1  0  0  0
  4  5  2  0  0  0
  5  6  1  0  0  0
  5 28  1  0  0  0
  6  7  2  0  0  0
  6 29  1  0  0  0
  7  8  1  0  0  0
  7 30  1  0  0  0
  8  9  2  0  0  0
  8 31  1  0  0  0
  9 10  1  0  0  0
 10 26  1  0  0  0
 10 11  2  0  0  0
 11 12  1  0  0  0
 11 32  1  0  0  0
 12 13  2  0  0  0
 12 33  1  0  0  0
 13 25  1  0  0  0
 13 14  1  0  0  0
 14 15  1  0  0  0
 14 34  1  0  0  0
 15 18  1  0  0  0
 15 17  2  0  0  0
 15 16  2  0  0  0
 18 19  2  0  0  0
 18 24  1  0  0  0
 19 20  1  0  0  0
 19 35  1  0  0  0
 20 21  2  0  0  0
 20 36  1  0  0  0
 21 22  1  0  0  0
 21 37  1  0  0  0
 22 24  2  0  0  0
 22 23  1  0  0  0
 24 38  1  0  0  0
 25 26  2  0  0  0
 25 39  1  0  0  0
M  END
> <s_m_entry_id>
146

> <s_m_entry_name>
CHEMBL1973793.1

> <s_m_job_name>
mmod_csearch_26

> <s_lp_label>
 _2

> <r_mmod_Potential_Energy-MMFF94s>
185.974915

> <b_mmod_Minimization_Converged-MMFF94s>
1

> <r_mmod_RMS_Derivative-MMFF94s>
0.010195

> <i_mmod_Times_Found-MMFF94s>
272

> <r_mmod_Relative_Potential_Energy-MMFF94s>
0

> <i_mmod_Conformation-MMFF94s>
1

> <i_mmod_Serial_Number-MMFF94s>
2

$$$$
