CHEMBL2004290.smi
                    3D
 Structure written by MMmdl.
 66 70  0  0  1  0            999 V2000
   11.4249    7.7830   -8.7159 C   0  0  0  0  0  0
   12.1146    6.5591   -8.9377 O   0  0  0  0  0  0
   13.4300    6.5181   -8.5687 C   0  0  0  0  0  0
   14.1580    7.5603   -7.9991 C   0  0  0  0  0  0
   15.5094    7.3841   -7.6660 C   0  0  0  0  0  0
   16.1488    6.1659   -7.8971 C   0  0  0  0  0  0
   17.5025    5.9069   -7.5935 N   0  0  0  0  0  0
   18.4239    6.7670   -7.0098 C   0  0  0  0  0  0
   18.1815    7.9088   -6.6430 O   0  0  0  0  0  0
   19.6624    6.1462   -6.9027 N   0  0  0  0  0  0
   20.8473    6.6702   -6.3432 C   0  0  0  0  0  0
   20.9493    7.9361   -5.7623 C   0  0  0  0  0  0
   22.1652    8.3801   -5.2286 C   0  0  0  0  0  0
   23.2932    7.5586   -5.2713 C   0  0  0  0  0  0
   23.2013    6.2907   -5.8490 C   0  0  0  0  0  0
   21.9846    5.8513   -6.3802 C   0  0  0  0  0  0
   24.5610    8.0246   -4.7348 C   0  0  0  0  0  0
   24.8166    7.8736   -3.3909 C   0  0  0  0  0  0
   26.3552    8.4406   -2.9625 S   0  0  0  0  0  0
   26.7287    8.9313   -4.5818 C   0  0  0  0  0  0
   27.9144    9.5265   -5.0557 C   0  0  0  0  0  0
   27.9548    9.7906   -6.4136 C   0  0  0  0  0  0
   26.9565    9.5297   -7.2762 N   0  0  0  0  0  0
   25.8118    8.9726   -6.8302 C   0  0  0  0  0  0
   24.8504    8.7729   -7.7903 N   0  0  0  0  0  0
   25.6628    8.6415   -5.4550 C   0  0  0  0  0  0
   29.0229    9.8457   -4.1871 C   0  0  0  0  0  0
   29.0810   10.5738   -2.9781 C   0  0  0  0  0  0
   30.3211   10.6553   -2.4867 N   0  0  0  0  0  0
   31.0628    9.9769   -3.3866 N   0  0  0  0  0  0
   32.4947    9.8371   -3.1780 C   0  0  0  0  0  0
   32.8685    9.2120   -1.8166 C   0  0  0  0  0  0
   32.1902    7.8597   -1.5804 C   0  0  0  0  0  0
   34.3892    9.0425   -1.7417 C   0  0  0  0  0  0
   32.5075   10.0907   -0.7432 O   0  0  0  0  0  0
   30.3322    9.4852   -4.4302 C   0  0  0  0  0  0
   15.4131    5.1227   -8.4705 C   0  0  0  0  0  0
   14.0660    5.2993   -8.8022 C   0  0  0  0  0  0
   11.3912    8.0297   -7.6495 H   0  0  0  0  0  0
   10.3943    7.6527   -9.0598 H   0  0  0  0  0  0
   11.8693    8.5976   -9.2973 H   0  0  0  0  0  0
   13.7118    8.5285   -7.7968 H   0  0  0  0  0  0
   16.0311    8.2282   -7.2260 H   0  0  0  0  0  0
   17.8263    4.9801   -7.8175 H   0  0  0  0  0  0
   19.7334    5.2156   -7.2812 H   0  0  0  0  0  0
   20.0996    8.6096   -5.7043 H   0  0  0  0  0  0
   22.2189    9.3727   -4.7860 H   0  0  0  0  0  0
   24.0729    5.6412   -5.8941 H   0  0  0  0  0  0
   21.9442    4.8599   -6.8240 H   0  0  0  0  0  0
   24.1699    7.4448   -2.6362 H   0  0  0  0  0  0
   28.8274   10.2530   -6.8686 H   0  0  0  0  0  0
   23.9274    8.4375   -7.5732 H   0  0  0  0  0  0
   25.0802    9.0915   -8.7198 H   0  0  0  0  0  0
   28.2728   11.0525   -2.4389 H   0  0  0  0  0  0
   32.9053   10.8507   -3.2647 H   0  0  0  0  0  0
   32.8888    9.2332   -4.0037 H   0  0  0  0  0  0
   31.1025    7.9625   -1.5035 H   0  0  0  0  0  0
   32.5174    7.4233   -0.6295 H   0  0  0  0  0  0
   32.4188    7.1502   -2.3822 H   0  0  0  0  0  0
   34.8944   10.0083   -1.8587 H   0  0  0  0  0  0
   34.7588    8.3619   -2.5157 H   0  0  0  0  0  0
   34.6926    8.6528   -0.7631 H   0  0  0  0  0  0
   31.5942   10.4057   -0.9309 H   0  0  0  0  0  0
   30.7923    8.9222   -5.2308 H   0  0  0  0  0  0
   15.8698    4.1571   -8.6689 H   0  0  0  0  0  0
   13.5078    4.4788   -9.2465 H   0  0  0  0  0  0
  1  2  1  0  0  0
  1 39  1  0  0  0
  1 40  1  0  0  0
  1 41  1  0  0  0
  2  3  1  0  0  0
  3  4  2  0  0  0
  3 38  1  0  0  0
  4  5  1  0  0  0
  4 42  1  0  0  0
  5  6  2  0  0  0
  5 43  1  0  0  0
  6 37  1  0  0  0
  6  7  1  0  0  0
  7  8  1  0  0  0
  7 44  1  0  0  0
  8 10  1  0  0  0
  8  9  2  0  0  0
 10 11  1  0  0  0
 10 45  1  0  0  0
 11 12  2  0  0  0
 11 16  1  0  0  0
 12 13  1  0  0  0
 12 46  1  0  0  0
 13 14  2  0  0  0
 13 47  1  0  0  0
 14 15  1  0  0  0
 14 17  1  0  0  0
 15 16  2  0  0  0
 15 48  1  0  0  0
 16 49  1  0  0  0
 17 18  2  0  0  0
 17 26  1  0  0  0
 18 19  1  0  0  0
 18 50  1  0  0  0
 19 20  1  0  0  0
 20 21  2  0  0  0
 20 26  1  0  0  0
 21 22  1  0  0  0
 21 27  1  0  0  0
 22 23  2  0  0  0
 22 51  1  0  0  0
 23 24  1  0  0  0
 24 26  2  0  0  0
 24 25  1  0  0  0
 25 52  1  0  0  0
 25 53  1  0  0  0
 27 28  1  0  0  0
 27 36  2  0  0  0
 28 29  2  0  0  0
 28 54  1  0  0  0
 29 30  1  0  0  0
 30 36  1  0  0  0
 30 31  1  0  0  0
 31 32  1  0  0  0
 31 55  1  0  0  0
 31 56  1  0  0  0
 32 35  1  0  0  0
 32 34  1  0  0  0
 32 33  1  0  0  0
 33 57  1  0  0  0
 33 58  1  0  0  0
 33 59  1  0  0  0
 34 60  1  0  0  0
 34 61  1  0  0  0
 34 62  1  0  0  0
 35 63  1  0  0  0
 36 64  1  0  0  0
 37 38  2  0  0  0
 37 65  1  0  0  0
 38 66  1  0  0  0
M  END
> <s_m_entry_id>
204

> <s_m_entry_name>
CHEMBL2004290.1

> <s_m_job_name>
mmod_csearch_27

> <s_lp_label>
 _53

> <r_mmod_Potential_Energy-MMFF94s>
5.139388

> <b_mmod_Minimization_Converged-MMFF94s>
1

> <r_mmod_RMS_Derivative-MMFF94s>
0.011891

> <i_mmod_Times_Found-MMFF94s>
34

> <r_mmod_Relative_Potential_Energy-MMFF94s>
0

> <i_mmod_Conformation-MMFF94s>
1

> <i_mmod_Serial_Number-MMFF94s>
53

$$$$
