CHEMBL475251.smi
                    3D
 Structure written by MMmdl.
 57 60  0  0  1  0            999 V2000
    3.8187   -5.5352    4.1364 C   0  0  0  0  0  0
    4.1943   -4.1950    4.4474 O   0  0  0  0  0  0
    3.2016   -3.2702    4.2508 C   0  0  0  0  0  0
    3.6166   -2.0834    3.6390 C   0  0  0  0  0  0
    2.7176   -1.0396    3.3743 C   0  0  0  0  0  0
    3.2107    0.1344    2.7910 N   0  0  0  0  0  0
    2.6999    1.4205    2.6532 C   0  0  0  0  0  0
    3.4302    2.2477    1.8871 N   0  0  0  0  0  0
    2.9739    3.5072    1.7430 C   0  0  0  0  0  0
    1.8302    3.9635    2.3431 C   0  0  0  0  0  0
    1.4132    5.2253    2.1709 F   0  0  0  0  0  0
    1.1331    3.0643    3.1290 C   0  0  0  0  0  0
   -0.0173    3.5082    3.7985 N   0  0  0  0  0  0
   -0.7734    2.9667    4.8302 C   0  0  0  0  0  0
   -0.3343    1.9278    5.6464 C   0  0  0  0  0  0
   -1.1601    1.4489    6.6632 C   0  0  0  0  0  0
   -2.4011    2.0313    6.8535 C   0  0  0  0  0  0
   -3.1932    1.5197    7.8379 O   0  0  0  0  0  0
   -4.3195    2.3290    8.1948 C   0  0  0  0  0  0
   -3.9063    3.1856    9.4008 C   0  0  0  0  0  0
   -5.4240    1.3550    8.6204 C   0  0  0  0  0  0
   -4.8916    3.2803    7.1145 C   0  0  0  0  0  0
   -6.0275    3.7497    7.1510 O   0  0  0  0  0  0
   -4.0164    3.6455    6.1350 N   0  0  0  0  0  0
   -2.7646    3.0677    6.0055 C   0  0  0  0  0  0
   -1.9843    3.5413    5.0123 N   0  0  0  0  0  0
    1.5740    1.7989    3.2819 N   0  0  0  0  0  0
    1.3797   -1.2124    3.7535 C   0  0  0  0  0  0
    0.9432   -2.3880    4.3787 C   0  0  0  0  0  0
   -0.3506   -2.6126    4.7798 O   0  0  0  0  0  0
   -1.3602   -1.8581    4.1201 C   0  0  0  0  0  0
    1.8719   -3.4017    4.6627 C   0  0  0  0  0  0
    1.4531   -4.5373    5.3132 O   0  0  0  0  0  0
    1.5178   -4.3333    6.7254 C   0  0  0  0  0  0
    4.7228   -6.0666    3.8230 H   0  0  0  0  0  0
    3.0994   -5.5923    3.3115 H   0  0  0  0  0  0
    3.4357   -6.0393    5.0282 H   0  0  0  0  0  0
    4.6650   -1.9819    3.3682 H   0  0  0  0  0  0
    4.1121    0.0777    2.3383 H   0  0  0  0  0  0
    3.5716    4.1595    1.1157 H   0  0  0  0  0  0
   -0.5042    4.2777    3.3561 H   0  0  0  0  0  0
    0.6462    1.4830    5.5150 H   0  0  0  0  0  0
   -0.8293    0.6304    7.2959 H   0  0  0  0  0  0
   -3.1033    3.8815    9.1314 H   0  0  0  0  0  0
   -3.5192    2.5596   10.2128 H   0  0  0  0  0  0
   -4.7445    3.7775    9.7841 H   0  0  0  0  0  0
   -5.7398    0.7400    7.7694 H   0  0  0  0  0  0
   -6.3074    1.8743    9.0068 H   0  0  0  0  0  0
   -5.0639    0.6635    9.3909 H   0  0  0  0  0  0
   -4.2965    4.3303    5.4493 H   0  0  0  0  0  0
    0.6714   -0.4177    3.5523 H   0  0  0  0  0  0
   -1.2553   -1.9095    3.0309 H   0  0  0  0  0  0
   -1.3613   -0.8212    4.4672 H   0  0  0  0  0  0
   -2.3283   -2.2957    4.3824 H   0  0  0  0  0  0
    1.2137   -5.2655    7.2108 H   0  0  0  0  0  0
    0.8309   -3.5444    7.0501 H   0  0  0  0  0  0
    2.5398   -4.1035    7.0468 H   0  0  0  0  0  0
  1  2  1  0  0  0
  1 35  1  0  0  0
  1 36  1  0  0  0
  1 37  1  0  0  0
  2  3  1  0  0  0
  3 32  1  0  0  0
  3  4  2  0  0  0
  4  5  1  0  0  0
  4 38  1  0  0  0
  5 28  2  0  0  0
  5  6  1  0  0  0
  6  7  1  0  0  0
  6 39  1  0  0  0
  7 27  1  0  0  0
  7  8  2  0  0  0
  8  9  1  0  0  0
  9 10  2  0  0  0
  9 40  1  0  0  0
 10 12  1  0  0  0
 10 11  1  0  0  0
 12 27  2  0  0  0
 12 13  1  0  0  0
 13 14  1  0  0  0
 13 41  1  0  0  0
 14 26  1  0  0  0
 14 15  2  0  0  0
 15 16  1  0  0  0
 15 42  1  0  0  0
 16 17  2  0  0  0
 16 43  1  0  0  0
 17 25  1  0  0  0
 17 18  1  0  0  0
 18 19  1  0  0  0
 19 22  1  0  0  0
 19 21  1  0  0  0
 19 20  1  0  0  0
 20 44  1  0  0  0
 20 45  1  0  0  0
 20 46  1  0  0  0
 21 47  1  0  0  0
 21 48  1  0  0  0
 21 49  1  0  0  0
 22 24  1  0  0  0
 22 23  2  0  0  0
 24 25  1  0  0  0
 24 50  1  0  0  0
 25 26  2  0  0  0
 28 29  1  0  0  0
 28 51  1  0  0  0
 29 32  2  0  0  0
 29 30  1  0  0  0
 30 31  1  0  0  0
 31 52  1  0  0  0
 31 53  1  0  0  0
 31 54  1  0  0  0
 32 33  1  0  0  0
 33 34  1  0  0  0
 34 55  1  0  0  0
 34 56  1  0  0  0
 34 57  1  0  0  0
M  END
> <s_m_entry_id>
118

> <s_m_entry_name>
CHEMBL475251.1

> <s_m_job_name>
mmod_csearch_22

> <s_lp_label>
 _6

> <r_mmod_Potential_Energy-MMFF94s>
-35.258102

> <b_mmod_Minimization_Converged-MMFF94s>
1

> <r_mmod_RMS_Derivative-MMFF94s>
0.00941

> <i_mmod_Times_Found-MMFF94s>
97

> <r_mmod_Relative_Potential_Energy-MMFF94s>
0

> <i_mmod_Conformation-MMFF94s>
1

> <i_mmod_Serial_Number-MMFF94s>
6

$$$$
