CHEMBL1993904.smi
                    3D
 Structure written by MMmdl.
 44 48  0  0  1  0            999 V2000
   -1.3097   -3.5837   -3.4481 N   0  0  0  0  0  0
   -0.3793   -2.9978   -4.2603 C   0  0  0  0  0  0
   -0.7574   -2.4062   -5.2681 O   0  0  0  0  0  0
    1.0138   -3.1203   -3.8665 C   0  0  0  0  0  0
    2.1007   -2.5838   -4.5241 C   0  0  0  0  0  0
    3.3671   -2.8812   -3.9033 C   0  0  0  0  0  0
    4.6906   -2.5234   -4.2636 C   0  0  0  0  0  0
    5.7021   -2.9630   -3.4148 C   0  0  0  0  0  0
    5.5153   -3.6973   -2.2998 N   0  0  0  0  0  0
    4.2665   -4.0539   -1.9431 C   0  0  0  0  0  0
    4.1343   -4.8034   -0.8002 N   0  0  0  0  0  0
    3.1821   -3.6451   -2.7451 C   0  0  0  0  0  0
    1.5063   -3.9809   -2.4811 S   0  0  0  0  0  0
    4.9668   -1.7304   -5.4610 C   0  0  0  0  0  0
    5.4923   -0.4365   -5.3612 C   0  0  0  0  0  0
    5.7652    0.3242   -6.5069 C   0  0  0  0  0  0
    5.5243   -0.1800   -7.7883 C   0  0  0  0  0  0
    5.7778    0.5290   -8.9735 N   0  0  0  0  0  0
    6.2924    1.7602   -9.1323 C   0  0  0  0  0  0
    6.3951    2.1564  -10.4425 O   0  0  0  0  0  0
    6.9305    3.4076  -10.3741 C   0  0  0  0  0  0
    7.2370    4.2551  -11.4314 C   0  0  0  0  0  0
    7.7823    5.4948  -11.0747 C   0  0  0  0  0  0
    7.9970    5.8389   -9.7334 C   0  0  0  0  0  0
    7.6726    4.9514   -8.6955 C   0  0  0  0  0  0
    7.1264    3.7081   -9.0382 C   0  0  0  0  0  0
    6.7182    2.6547   -8.2630 N   0  0  0  0  0  0
    5.0028   -1.4796   -7.8835 C   0  0  0  0  0  0
    4.7297   -2.2435   -6.7418 C   0  0  0  0  0  0
   -1.0525   -4.0798   -2.6073 H   0  0  0  0  0  0
   -2.2823   -3.5048   -3.7086 H   0  0  0  0  0  0
    1.9923   -1.9919   -5.4273 H   0  0  0  0  0  0
    6.7431   -2.7281   -3.6269 H   0  0  0  0  0  0
    3.2338   -5.1032   -0.4667 H   0  0  0  0  0  0
    4.9861   -5.0301   -0.3088 H   0  0  0  0  0  0
    5.6888    0.0044   -4.3854 H   0  0  0  0  0  0
    6.1675    1.3236   -6.3653 H   0  0  0  0  0  0
    5.5307    0.0443   -9.8250 H   0  0  0  0  0  0
    7.0638    3.9713  -12.4616 H   0  0  0  0  0  0
    8.0447    6.2057  -11.8564 H   0  0  0  0  0  0
    8.4226    6.8106   -9.4896 H   0  0  0  0  0  0
    7.8374    5.2138   -7.6565 H   0  0  0  0  0  0
    4.8014   -1.9201   -8.8572 H   0  0  0  0  0  0
    4.3315   -3.2492   -6.8646 H   0  0  0  0  0  0
  1  2  1  0  0  0
  1 30  1  0  0  0
  1 31  1  0  0  0
  2  4  1  0  0  0
  2  3  2  0  0  0
  4 13  1  0  0  0
  4  5  2  0  0  0
  5  6  1  0  0  0
  5 32  1  0  0  0
  6 12  1  0  0  0
  6  7  2  0  0  0
  7  8  1  0  0  0
  7 14  1  0  0  0
  8  9  2  0  0  0
  8 33  1  0  0  0
  9 10  1  0  0  0
 10 12  2  0  0  0
 10 11  1  0  0  0
 11 34  1  0  0  0
 11 35  1  0  0  0
 12 13  1  0  0  0
 14 15  2  0  0  0
 14 29  1  0  0  0
 15 16  1  0  0  0
 15 36  1  0  0  0
 16 17  2  0  0  0
 16 37  1  0  0  0
 17 28  1  0  0  0
 17 18  1  0  0  0
 18 19  1  0  0  0
 18 38  1  0  0  0
 19 27  2  0  0  0
 19 20  1  0  0  0
 20 21  1  0  0  0
 21 26  1  0  0  0
 21 22  2  0  0  0
 22 23  1  0  0  0
 22 39  1  0  0  0
 23 24  2  0  0  0
 23 40  1  0  0  0
 24 25  1  0  0  0
 24 41  1  0  0  0
 25 26  2  0  0  0
 25 42  1  0  0  0
 26 27  1  0  0  0
 28 29  2  0  0  0
 28 43  1  0  0  0
 29 44  1  0  0  0
M  END
> <s_m_entry_id>
10057

> <s_m_job_name>
mmod_csearch_12

> <r_mmod_Potential_Energy-MMFF94s>
-122.838348

> <b_mmod_Minimization_Converged-MMFF94s>
1

> <r_mmod_RMS_Derivative-MMFF94s>
0.006099

> <i_mmod_Times_Found-MMFF94s>
127

> <r_mmod_Relative_Potential_Energy-MMFF94s>
0

> <i_mmod_Conformation-MMFF94s>
1

> <s_lp_label>
 _26

> <i_mmod_Serial_Number-MMFF94s>
26

$$$$
