CHEMBL2007421.smi
                    3D
 Structure written by MMmdl.
 46 48  0  0  1  0            999 V2000
    8.2645   18.2541   -3.8976 C   0  0  0  0  0  0
    8.2164   19.4308   -2.9264 C   0  0  0  0  0  0
    6.7710   19.7552   -2.5606 C   0  0  0  0  0  0
    8.8895   19.0908   -1.7072 O   0  0  0  0  0  0
   10.2104   19.2737   -1.6737 C   0  0  0  0  0  0
   11.1699   19.7034   -2.5629 C   0  0  0  0  0  0
   12.4002   19.6335   -1.8681 C   0  0  0  0  0  0
   13.6168   19.9517   -2.3494 N   0  0  0  0  0  0
   14.0685   20.1702   -3.6684 C   0  0  0  0  0  0
   13.2580   19.8793   -4.7102 N   0  0  0  0  0  0
   13.7043   20.0866   -5.9571 C   0  0  0  0  0  0
   12.9194   19.7695   -7.0283 N   0  0  0  0  0  0
   11.7332   18.9498   -6.8911 C   0  0  1  0  0  0
   10.7795   19.2707   -8.0463 C   0  0  0  0  0  0
   12.1064   17.4690   -6.8766 C   0  0  0  0  0  0
   12.1883   16.7876   -5.6574 C   0  0  0  0  0  0
   12.5690   15.4471   -5.6507 C   0  0  0  0  0  0
   12.8647   14.8299   -6.8542 C   0  0  0  0  0  0
   13.2352   13.5440   -6.8822 F   0  0  0  0  0  0
   12.7751   15.5646   -8.0216 C   0  0  0  0  0  0
   12.4070   16.8681   -8.0625 N   0  0  0  0  0  0
   14.9091   20.5911   -6.2384 N   0  0  0  0  0  0
   15.7001   20.8929   -5.1904 C   0  0  0  0  0  0
   15.3332   20.7024   -3.8797 C   0  0  0  0  0  0
   16.4146   21.0990   -2.6034 Cl  0  0  0  0  0  0
   12.2213   19.2214   -0.6107 N   0  0  0  0  0  0
   10.8982   19.0035   -0.5248 N   0  0  0  0  0  0
   10.5127   18.6704    0.3506 H   0  0  0  0  0  0
    9.2954   18.0161   -4.1775 H   0  0  0  0  0  0
    7.7046   18.4731   -4.8121 H   0  0  0  0  0  0
    7.8483   17.3506   -3.4383 H   0  0  0  0  0  0
    8.6548   20.3264   -3.3843 H   0  0  0  0  0  0
    6.2883   18.9034   -2.0687 H   0  0  0  0  0  0
    6.1876   20.0270   -3.4456 H   0  0  0  0  0  0
    6.7363   20.5889   -1.8508 H   0  0  0  0  0  0
   11.0105   20.0254   -3.5796 H   0  0  0  0  0  0
   14.3746   19.8972   -1.6774 H   0  0  0  0  0  0
   13.4044   19.7845   -7.9136 H   0  0  0  0  0  0
   11.1848   19.1957   -5.9727 H   0  0  0  0  0  0
   11.2460   19.1011   -9.0238 H   0  0  0  0  0  0
   10.4743   20.3227   -8.0108 H   0  0  0  0  0  0
    9.8758   18.6536   -7.9925 H   0  0  0  0  0  0
   11.9753   17.2964   -4.7211 H   0  0  0  0  0  0
   12.6440   14.8933   -4.7212 H   0  0  0  0  0  0
   13.0058   15.1100   -8.9791 H   0  0  0  0  0  0
   16.6709   21.3023   -5.4536 H   0  0  0  0  0  0
  1  2  1  0  0  0
  1 29  1  0  0  0
  1 30  1  0  0  0
  1 31  1  0  0  0
  2  4  1  0  0  0
  2  3  1  0  0  0
  2 32  1  0  0  0
  3 33  1  0  0  0
  3 34  1  0  0  0
  3 35  1  0  0  0
  4  5  1  0  0  0
  5  6  2  0  0  0
  5 27  1  0  0  0
  6  7  1  0  0  0
  6 36  1  0  0  0
  7 26  2  0  0  0
  7  8  1  0  0  0
  8  9  1  0  0  0
  8 37  1  0  0  0
  9 24  1  0  0  0
  9 10  2  0  0  0
 10 11  1  0  0  0
 11 22  2  0  0  0
 11 12  1  0  0  0
 12 13  1  0  0  0
 12 38  1  0  0  0
 13 15  1  0  0  0
 13 14  1  0  0  0
 13 39  1  0  0  0
 14 40  1  0  0  0
 14 41  1  0  0  0
 14 42  1  0  0  0
 15 16  2  0  0  0
 15 21  1  0  0  0
 16 17  1  0  0  0
 16 43  1  0  0  0
 17 18  2  0  0  0
 17 44  1  0  0  0
 18 20  1  0  0  0
 18 19  1  0  0  0
 20 21  2  0  0  0
 20 45  1  0  0  0
 22 23  1  0  0  0
 23 24  2  0  0  0
 23 46  1  0  0  0
 24 25  1  0  0  0
 26 27  1  0  0  0
 27 28  1  0  0  0
M  END
> <s_m_entry_id>
206

> <s_m_entry_name>
CHEMBL2007421.1

> <s_m_job_name>
mmod_csearch_27

> <s_lp_label>
 _55

> <r_mmod_Potential_Energy-MMFF94s>
-247.753265

> <b_mmod_Minimization_Converged-MMFF94s>
1

> <r_mmod_RMS_Derivative-MMFF94s>
0.010265

> <i_mmod_Times_Found-MMFF94s>
301

> <r_mmod_Relative_Potential_Energy-MMFF94s>
0

> <i_mmod_Conformation-MMFF94s>
1

> <i_mmod_Serial_Number-MMFF94s>
55

$$$$
