CHEMBL521851.smi
                    3D
 Structure written by MMmdl.
 62 67  0  0  1  0            999 V2000
    6.8488    8.6215    4.6380 C   0  0  0  0  0  0
    7.5468    7.8254    6.0730 S   0  0  0  0  0  0
    8.8666    7.3503    5.7166 O   0  0  0  0  0  0
    7.3494    8.7042    7.2057 O   0  0  0  0  0  0
    6.5533    6.4789    6.2847 N   0  0  0  0  0  0
    6.6381    5.4004    5.2642 C   0  0  0  0  0  0
    5.9620    4.1190    5.7913 C   0  0  0  0  0  0
    4.5514    4.3455    6.1832 N   0  0  0  0  0  0
    3.9665    3.0917    6.6922 C   0  0  0  0  0  0
    2.4711    3.1846    6.8220 C   0  0  0  0  0  0
    1.5492    3.5321    5.8568 C   0  0  0  0  0  0
    0.2076    3.5050    6.3362 C   0  0  0  0  0  0
   -0.8785    3.7884    5.5833 N   0  0  0  0  0  0
   -2.0510    3.6844    6.2204 C   0  0  0  0  0  0
   -2.2083    3.3354    7.5100 N   0  0  0  0  0  0
   -1.1320    3.0770    8.2914 C   0  0  0  0  0  0
   -1.3302    2.7175    9.6204 N   0  0  0  0  0  0
   -2.6355    2.1207    9.9454 C   0  0  0  0  0  0
   -2.5925    1.5214   11.3597 C   0  0  0  0  0  0
   -2.1901    2.4973   12.3362 O   0  0  0  0  0  0
   -0.8828    3.0039   12.0219 C   0  0  0  0  0  0
   -0.8491    3.6670   10.6356 C   0  0  0  0  0  0
    0.1292    3.1464    7.6768 C   0  0  0  0  0  0
    1.7018    2.8061    8.2999 S   0  0  0  0  0  0
   -3.2609    3.9493    5.4248 C   0  0  0  0  0  0
   -3.2624    3.8584    4.0107 C   0  0  0  0  0  0
   -4.4056    4.1012    3.2465 C   0  0  0  0  0  0
   -5.6096    4.4523    3.8535 C   0  0  0  0  0  0
   -5.6114    4.5534    5.2466 C   0  0  0  0  0  0
   -6.6151    4.8816    6.1203 N   0  0  0  0  0  0
   -7.5757    5.1141    5.8970 H   0  0  0  0  0  0
   -6.2423    4.8932    7.4091 N   0  0  0  0  0  0
   -4.9513    4.5549    7.3560 C   0  0  0  0  0  0
   -4.4867    4.3168    6.0364 C   0  0  0  0  0  0
    4.5079    5.4145    7.2108 C   0  0  0  0  0  0
    5.1514    6.7264    6.7174 C   0  0  0  0  0  0
    7.4447    9.5140    4.4327 H   0  0  0  0  0  0
    5.8192    8.9127    4.8497 H   0  0  0  0  0  0
    6.9033    7.9439    3.7850 H   0  0  0  0  0  0
    7.6846    5.1696    5.0411 H   0  0  0  0  0  0
    6.1486    5.7251    4.3389 H   0  0  0  0  0  0
    6.0045    3.3636    4.9974 H   0  0  0  0  0  0
    6.5369    3.7338    6.6444 H   0  0  0  0  0  0
    4.4378    2.7953    7.6384 H   0  0  0  0  0  0
    4.1654    2.2812    5.9776 H   0  0  0  0  0  0
    1.8215    3.7977    4.8432 H   0  0  0  0  0  0
   -2.8937    1.3278    9.2333 H   0  0  0  0  0  0
   -3.4124    2.8941    9.9092 H   0  0  0  0  0  0
   -3.5868    1.1608   11.6412 H   0  0  0  0  0  0
   -1.9026    0.6701   11.4050 H   0  0  0  0  0  0
   -0.6183    3.7370   12.7904 H   0  0  0  0  0  0
   -0.1596    2.1816   12.0812 H   0  0  0  0  0  0
   -1.5077    4.5452   10.6382 H   0  0  0  0  0  0
    0.1688    4.0141   10.4378 H   0  0  0  0  0  0
   -2.3428    3.5843    3.4933 H   0  0  0  0  0  0
   -4.3538    4.0146    2.1632 H   0  0  0  0  0  0
   -6.5001    4.6425    3.2632 H   0  0  0  0  0  0
   -4.3937    4.4976    8.2814 H   0  0  0  0  0  0
    3.4697    5.6386    7.4806 H   0  0  0  0  0  0
    5.0220    5.0851    8.1239 H   0  0  0  0  0  0
    4.5710    7.1327    5.8813 H   0  0  0  0  0  0
    5.1299    7.4493    7.5391 H   0  0  0  0  0  0
  1  2  1  0  0  0
  1 37  1  0  0  0
  1 38  1  0  0  0
  1 39  1  0  0  0
  2  5  1  0  0  0
  2  4  2  0  0  0
  2  3  2  0  0  0
  5 36  1  0  0  0
  5  6  1  0  0  0
  6  7  1  0  0  0
  6 40  1  0  0  0
  6 41  1  0  0  0
  7  8  1  0  0  0
  7 42  1  0  0  0
  7 43  1  0  0  0
  8 35  1  0  0  0
  8  9  1  0  0  0
  9 10  1  0  0  0
  9 44  1  0  0  0
  9 45  1  0  0  0
 10 24  1  0  0  0
 10 11  2  0  0  0
 11 12  1  0  0  0
 11 46  1  0  0  0
 12 23  1  0  0  0
 12 13  2  0  0  0
 13 14  1  0  0  0
 14 15  2  0  0  0
 14 25  1  0  0  0
 15 16  1  0  0  0
 16 23  2  0  0  0
 16 17  1  0  0  0
 17 22  1  0  0  0
 17 18  1  0  0  0
 18 19  1  0  0  0
 18 47  1  0  0  0
 18 48  1  0  0  0
 19 20  1  0  0  0
 19 49  1  0  0  0
 19 50  1  0  0  0
 20 21  1  0  0  0
 21 22  1  0  0  0
 21 51  1  0  0  0
 21 52  1  0  0  0
 22 53  1  0  0  0
 22 54  1  0  0  0
 23 24  1  0  0  0
 25 26  2  0  0  0
 25 34  1  0  0  0
 26 27  1  0  0  0
 26 55  1  0  0  0
 27 28  2  0  0  0
 27 56  1  0  0  0
 28 29  1  0  0  0
 28 57  1  0  0  0
 29 30  1  0  0  0
 29 34  2  0  0  0
 30 32  1  0  0  0
 30 31  1  0  0  0
 32 33  2  0  0  0
 33 34  1  0  0  0
 33 58  1  0  0  0
 35 36  1  0  0  0
 35 59  1  0  0  0
 35 60  1  0  0  0
 36 61  1  0  0  0
 36 62  1  0  0  0
M  END
> <s_m_entry_id>
121

> <s_m_entry_name>
CHEMBL521851.1

> <s_m_job_name>
mmod_csearch_23

> <s_lp_label>
 _1

> <r_mmod_Potential_Energy-MMFF94s>
343.790955

> <b_mmod_Minimization_Converged-MMFF94s>
1

> <r_mmod_RMS_Derivative-MMFF94s>
0.014165

> <i_mmod_Times_Found-MMFF94s>
24

> <r_mmod_Relative_Potential_Energy-MMFF94s>
0

> <i_mmod_Conformation-MMFF94s>
1

> <i_mmod_Serial_Number-MMFF94s>
1

$$$$
