CHEMBL1993335.smi
                    3D
 Structure written by MMmdl.
 31 34  0  0  1  0            999 V2000
    1.1734    0.2377    0.0054 C   0  0  0  0  0  0
    2.6190    0.1926    0.0016 N   0  0  0  0  0  0
    3.4312    1.2935    0.0434 C   0  0  0  0  0  0
    4.7365    0.8578    0.0153 C   0  0  0  0  0  0
    5.8971    1.7665    0.0179 C   0  0  0  0  0  0
    5.9588    3.0361    0.5646 C   0  0  0  0  0  0
    7.2588    3.5362    0.3239 C   0  0  0  0  0  0
    7.8254    4.7253    0.6584 N   0  0  0  0  0  0
    9.1090    4.8320    0.2413 C   0  0  0  0  0  0
   10.0297    6.4429    0.6400 Br  0  0  0  0  0  0
    9.7809    3.8310   -0.4589 C   0  0  0  0  0  0
    9.2344    2.6348   -0.8055 N   0  0  0  0  0  0
    7.9579    2.5558   -0.3753 C   0  0  0  0  0  0
    7.1160    1.4948   -0.5545 N   0  0  0  0  0  0
    7.3617    0.6585   -1.0615 H   0  0  0  0  0  0
    4.7217   -0.5689   -0.0230 C   0  0  0  0  0  0
    5.7119   -1.5742   -0.0295 C   0  0  0  0  0  0
    5.3226   -2.9122   -0.0758 C   0  0  0  0  0  0
    6.2659   -3.8642   -0.0853 F   0  0  0  0  0  0
    3.9871   -3.2827   -0.1094 C   0  0  0  0  0  0
    2.9848   -2.3111   -0.0894 C   0  0  0  0  0  0
    3.3753   -0.9612   -0.0416 C   0  0  0  0  0  0
    0.8131   -0.3010    0.8856 H   0  0  0  0  0  0
    0.8107   -0.2318   -0.9125 H   0  0  0  0  0  0
    0.8387    1.2774    0.0459 H   0  0  0  0  0  0
    3.0171    2.2930    0.0742 H   0  0  0  0  0  0
    5.1655    3.5509    1.0880 H   0  0  0  0  0  0
   10.8116    3.9633   -0.7734 H   0  0  0  0  0  0
    6.7680   -1.3364    0.0167 H   0  0  0  0  0  0
    3.7280   -4.3366   -0.1441 H   0  0  0  0  0  0
    1.9385   -2.5996   -0.1061 H   0  0  0  0  0  0
  1  2  1  0  0  0
  1 23  1  0  0  0
  1 24  1  0  0  0
  1 25  1  0  0  0
  2 22  1  0  0  0
  2  3  1  0  0  0
  3  4  2  0  0  0
  3 26  1  0  0  0
  4 16  1  0  0  0
  4  5  1  0  0  0
  5 14  1  0  0  0
  5  6  2  0  0  0
  6  7  1  0  0  0
  6 27  1  0  0  0
  7 13  1  0  0  0
  7  8  2  0  0  0
  8  9  1  0  0  0
  9 11  2  0  0  0
  9 10  1  0  0  0
 11 12  1  0  0  0
 11 28  1  0  0  0
 12 13  2  0  0  0
 13 14  1  0  0  0
 14 15  1  0  0  0
 16 22  1  0  0  0
 16 17  2  0  0  0
 17 18  1  0  0  0
 17 29  1  0  0  0
 18 20  2  0  0  0
 18 19  1  0  0  0
 20 21  1  0  0  0
 20 30  1  0  0  0
 21 22  2  0  0  0
 21 31  1  0  0  0
M  END
> <s_m_entry_id>
10102

> <s_m_job_name>
mmod_csearch_12

> <r_mmod_Potential_Energy-MMFF94s>
223.127594

> <b_mmod_Minimization_Converged-MMFF94s>
1

> <r_mmod_RMS_Derivative-MMFF94s>
0.005034

> <i_mmod_Times_Found-MMFF94s>
131

> <r_mmod_Relative_Potential_Energy-MMFF94s>
0

> <i_mmod_Conformation-MMFF94s>
1

> <s_lp_label>
 _71

> <i_mmod_Serial_Number-MMFF94s>
71

$$$$
