CHEMBL1988437.smi
                    3D
 Structure written by MMmdl.
 46 49  0  0  1  0            999 V2000
    8.1266    2.6406    1.0452 C   0  0  0  0  0  0
    7.1360    2.0755    0.1673 N   0  0  0  0  0  0
    6.1604    1.2278    0.6376 C   0  0  0  0  0  0
    6.0426    0.9123    1.8166 O   0  0  0  0  0  0
    5.1908    0.7172   -0.3647 C   0  0  0  0  0  0
    3.8364    0.7800    0.0033 C   0  0  0  0  0  0
    2.8441    0.3349   -0.8690 C   0  0  0  0  0  0
    3.1977   -0.1834   -2.1110 C   0  0  0  0  0  0
    4.5435   -0.2685   -2.4762 C   0  0  0  0  0  0
    5.5570    0.1685   -1.6067 C   0  0  0  0  0  0
    7.2497   -0.0507   -2.1555 S   0  0  0  0  0  0
    7.5514   -1.7182   -1.5826 C   0  0  0  0  0  0
    7.6307   -2.7574   -2.5149 C   0  0  0  0  0  0
    7.8647   -4.0792   -2.1071 C   0  0  0  0  0  0
    8.0230   -4.3559   -0.7345 C   0  0  0  0  0  0
    8.2632   -5.5130    0.0694 C   0  0  0  0  0  0
    8.4155   -6.8438   -0.4422 C   0  0  0  0  0  0
    8.6412   -7.9336    0.3123 C   0  0  0  0  0  0
    8.7946   -9.2902   -0.2261 C   0  0  0  0  0  0
    9.0285  -10.3582    0.6355 C   0  0  0  0  0  0
    9.1706  -11.6367    0.1006 C   0  0  0  0  0  0
    9.0758  -11.8131   -1.2737 C   0  0  0  0  0  0
    8.8415  -10.6978   -2.0592 C   0  0  0  0  0  0
    8.6993   -9.4468   -1.5687 N   0  0  0  0  0  0
    8.3291   -5.1963    1.3722 N   0  0  0  0  0  0
    8.1317   -3.8690    1.3983 N   0  0  0  0  0  0
    8.1311   -3.4007    2.2974 H   0  0  0  0  0  0
    7.9477   -3.3022    0.1680 C   0  0  0  0  0  0
    7.7234   -1.9748   -0.2149 C   0  0  0  0  0  0
    7.6413    3.0673    1.9272 H   0  0  0  0  0  0
    8.6714    3.4180    0.5050 H   0  0  0  0  0  0
    8.8150    1.8500    1.3553 H   0  0  0  0  0  0
    7.1972    2.2602   -0.8270 H   0  0  0  0  0  0
    3.5556    1.1811    0.9759 H   0  0  0  0  0  0
    1.7982    0.3904   -0.5769 H   0  0  0  0  0  0
    2.4268   -0.5339   -2.7934 H   0  0  0  0  0  0
    4.7948   -0.6953   -3.4454 H   0  0  0  0  0  0
    7.5097   -2.5530   -3.5765 H   0  0  0  0  0  0
    7.9210   -4.8743   -2.8449 H   0  0  0  0  0  0
    8.3404   -6.9650   -1.5197 H   0  0  0  0  0  0
    8.7189   -7.8293    1.3910 H   0  0  0  0  0  0
    9.1006  -10.2074    1.7076 H   0  0  0  0  0  0
    9.3538  -12.4856    0.7529 H   0  0  0  0  0  0
    9.1817  -12.7943   -1.7221 H   0  0  0  0  0  0
    8.7591  -10.7821   -3.1390 H   0  0  0  0  0  0
    7.6824   -1.1832    0.5263 H   0  0  0  0  0  0
  1  2  1  0  0  0
  1 30  1  0  0  0
  1 31  1  0  0  0
  1 32  1  0  0  0
  2  3  1  0  0  0
  2 33  1  0  0  0
  3  5  1  0  0  0
  3  4  2  0  0  0
  5  6  2  0  0  0
  5 10  1  0  0  0
  6  7  1  0  0  0
  6 34  1  0  0  0
  7  8  2  0  0  0
  7 35  1  0  0  0
  8  9  1  0  0  0
  8 36  1  0  0  0
  9 10  2  0  0  0
  9 37  1  0  0  0
 10 11  1  0  0  0
 11 12  1  0  0  0
 12 13  2  0  0  0
 12 29  1  0  0  0
 13 14  1  0  0  0
 13 38  1  0  0  0
 14 15  2  0  0  0
 14 39  1  0  0  0
 15 16  1  0  0  0
 15 28  1  0  0  0
 16 25  2  0  0  0
 16 17  1  0  0  0
 17 18  2  0  0  0
 17 40  1  0  0  0
 18 19  1  0  0  0
 18 41  1  0  0  0
 19 20  2  0  0  0
 19 24  1  0  0  0
 20 21  1  0  0  0
 20 42  1  0  0  0
 21 22  2  0  0  0
 21 43  1  0  0  0
 22 23  1  0  0  0
 22 44  1  0  0  0
 23 24  2  0  0  0
 23 45  1  0  0  0
 25 26  1  0  0  0
 26 28  1  0  0  0
 26 27  1  0  0  0
 28 29  2  0  0  0
 29 46  1  0  0  0
M  END
> <s_m_entry_id>
167

> <s_m_entry_name>
CHEMBL1988437.1

> <s_m_job_name>
mmod_csearch_27

> <s_lp_label>
 _15

> <r_mmod_Potential_Energy-MMFF94s>
169.290894

> <b_mmod_Minimization_Converged-MMFF94s>
1

> <r_mmod_RMS_Derivative-MMFF94s>
0.011618

> <i_mmod_Times_Found-MMFF94s>
363

> <r_mmod_Relative_Potential_Energy-MMFF94s>
0

> <i_mmod_Conformation-MMFF94s>
1

> <i_mmod_Serial_Number-MMFF94s>
15

$$$$
