CHEMBL572878.smi
                    3D
 Structure written by MMmdl.
 61 65  0  0  1  0            999 V2000
    2.8741   -9.5348   -6.7404 C   0  0  0  0  0  0
    4.2255   -9.8876   -7.1699 N   0  0  0  0  0  0
    5.2254   -9.4145   -6.1920 C   0  0  0  0  0  0
    6.6784   -9.7367   -6.6129 C   0  0  0  0  0  0
    6.9654   -9.2372   -7.9680 N   0  0  0  0  0  0
    5.9558   -9.6035   -8.9807 C   0  0  0  0  0  0
    4.5260   -9.2872   -8.4877 C   0  0  0  0  0  0
    8.2863   -9.2055   -8.4109 C   0  0  0  0  0  0
    9.3018   -8.7175   -7.6089 C   0  0  0  0  0  0
   10.5926   -8.6939   -8.1108 C   0  0  0  0  0  0
   11.6265   -8.2065   -7.2752 N   0  0  0  0  0  0
   12.9597   -8.2612   -7.5079 C   0  0  0  0  0  0
   14.0198   -7.7361   -6.8074 C   0  0  0  0  0  0
   15.1746   -8.1173   -7.5328 C   0  0  0  0  0  0
   16.5908   -7.8153   -7.2189 C   0  0  0  0  0  0
   14.8650   -8.8320   -8.6212 N   0  0  0  0  0  0
   13.5190   -8.9182   -8.5718 N   0  0  0  0  0  0
   13.0177   -9.4263   -9.2933 H   0  0  0  0  0  0
   10.8698   -9.1555   -9.3388 N   0  0  0  0  0  0
    9.8331   -9.5961  -10.0686 C   0  0  0  0  0  0
   10.1313  -10.1790  -11.7291 S   0  0  0  0  0  0
   11.8220  -10.7166  -11.6082 C   0  0  0  0  0  0
   12.1334  -11.9606  -11.0542 C   0  0  0  0  0  0
   13.4674  -12.3407  -10.8698 C   0  0  0  0  0  0
   14.5023  -11.4796  -11.2343 C   0  0  0  0  0  0
   15.8623  -11.7416  -10.9914 N   0  0  0  0  0  0
   16.4136  -12.8657  -10.4222 C   0  0  0  0  0  0
   15.8567  -13.9074  -10.1118 O   0  0  0  0  0  0
   17.8851  -12.7423  -10.2170 C   0  0  0  0  0  0
   18.4719  -11.5827   -9.4425 C   0  0  0  0  0  0
   18.4634  -12.9544   -8.8365 C   0  0  0  0  0  0
   14.1866  -10.2538  -11.8332 C   0  0  0  0  0  0
   12.8551   -9.8764  -12.0267 C   0  0  0  0  0  0
    8.5587   -9.6212   -9.6561 N   0  0  0  0  0  0
    2.7374   -8.4520   -6.6399 H   0  0  0  0  0  0
    2.6447  -10.0016   -5.7762 H   0  0  0  0  0  0
    2.1343   -9.9104   -7.4560 H   0  0  0  0  0  0
    5.0399   -9.8882   -5.2204 H   0  0  0  0  0  0
    5.1324   -8.3291   -6.0492 H   0  0  0  0  0  0
    7.3384   -9.2894   -5.8629 H   0  0  0  0  0  0
    6.8368  -10.8226   -6.5863 H   0  0  0  0  0  0
    6.1131   -9.0405   -9.9095 H   0  0  0  0  0  0
    6.0342  -10.6741   -9.2116 H   0  0  0  0  0  0
    4.4017   -8.1965   -8.4428 H   0  0  0  0  0  0
    3.8165   -9.6658   -9.2334 H   0  0  0  0  0  0
    9.0959   -8.3339   -6.6200 H   0  0  0  0  0  0
   11.2918   -7.6617   -6.4885 H   0  0  0  0  0  0
   13.9771   -7.1555   -5.8980 H   0  0  0  0  0  0
   17.0481   -7.2354   -8.0270 H   0  0  0  0  0  0
   17.1615   -8.7406   -7.0901 H   0  0  0  0  0  0
   16.6754   -7.2341   -6.2950 H   0  0  0  0  0  0
   11.3449  -12.6373  -10.7328 H   0  0  0  0  0  0
   13.6634  -13.3035  -10.4077 H   0  0  0  0  0  0
   16.5057  -10.9926  -11.2120 H   0  0  0  0  0  0
   18.4677  -13.1467  -11.0386 H   0  0  0  0  0  0
   17.8019  -10.8458   -9.0110 H   0  0  0  0  0  0
   19.4221  -11.1803   -9.7732 H   0  0  0  0  0  0
   19.4022  -13.4902   -8.7606 H   0  0  0  0  0  0
   17.7748  -13.1505   -8.0212 H   0  0  0  0  0  0
   14.9706   -9.5592  -12.1247 H   0  0  0  0  0  0
   12.6361   -8.9056  -12.4650 H   0  0  0  0  0  0
  1  2  1  0  0  0
  1 35  1  0  0  0
  1 36  1  0  0  0
  1 37  1  0  0  0
  2  7  1  0  0  0
  2  3  1  0  0  0
  3  4  1  0  0  0
  3 38  1  0  0  0
  3 39  1  0  0  0
  4  5  1  0  0  0
  4 40  1  0  0  0
  4 41  1  0  0  0
  5  6  1  0  0  0
  5  8  1  0  0  0
  6  7  1  0  0  0
  6 42  1  0  0  0
  6 43  1  0  0  0
  7 44  1  0  0  0
  7 45  1  0  0  0
  8 34  1  0  0  0
  8  9  2  0  0  0
  9 10  1  0  0  0
  9 46  1  0  0  0
 10 19  2  0  0  0
 10 11  1  0  0  0
 11 12  1  0  0  0
 11 47  1  0  0  0
 12 13  2  0  0  0
 12 17  1  0  0  0
 13 14  1  0  0  0
 13 48  1  0  0  0
 14 16  2  0  0  0
 14 15  1  0  0  0
 15 49  1  0  0  0
 15 50  1  0  0  0
 15 51  1  0  0  0
 16 17  1  0  0  0
 17 18  1  0  0  0
 19 20  1  0  0  0
 20 34  2  0  0  0
 20 21  1  0  0  0
 21 22  1  0  0  0
 22 23  2  0  0  0
 22 33  1  0  0  0
 23 24  1  0  0  0
 23 52  1  0  0  0
 24 25  2  0  0  0
 24 53  1  0  0  0
 25 32  1  0  0  0
 25 26  1  0  0  0
 26 27  1  0  0  0
 26 54  1  0  0  0
 27 29  1  0  0  0
 27 28  2  0  0  0
 29 31  1  0  0  0
 29 30  1  0  0  0
 29 55  1  0  0  0
 30 31  1  0  0  0
 30 56  1  0  0  0
 30 57  1  0  0  0
 31 58  1  0  0  0
 31 59  1  0  0  0
 32 33  2  0  0  0
 32 60  1  0  0  0
 33 61  1  0  0  0
M  END
> <s_m_entry_id>
124

> <s_m_entry_name>
CHEMBL572878.1

> <s_m_job_name>
mmod_csearch_23

> <s_lp_label>
 _4

> <r_mmod_Potential_Energy-MMFF94s>
54.994709

> <b_mmod_Minimization_Converged-MMFF94s>
0

> <r_mmod_RMS_Derivative-MMFF94s>
0.044276

> <i_mmod_Times_Found-MMFF94s>
188

> <r_mmod_Relative_Potential_Energy-MMFF94s>
0

> <i_mmod_Conformation-MMFF94s>
1

> <i_mmod_Serial_Number-MMFF94s>
4

$$$$
