CHEMBL1994555.smi
                    3D
 Structure written by MMmdl.
 35 37  0  0  1  0            999 V2000
    4.6707    7.7050   -1.0150 C   0  0  0  0  0  0
    3.5497    7.5547    0.0024 C   0  0  0  0  0  0
    3.4736    6.1704    0.5634 C   0  0  0  0  0  0
    4.2265    5.6224    1.6034 C   0  0  0  0  0  0
    3.8320    4.3069    1.7479 N   0  0  0  0  0  0
    4.1939    3.6538    2.4264 H   0  0  0  0  0  0
    2.8551    4.0011    0.8480 C   0  0  0  0  0  0
    2.2457    2.8039    0.7195 N   0  0  0  0  0  0
    1.3265    2.8377   -0.2756 C   0  0  0  0  0  0
    1.0574    3.9594   -1.0508 C   0  0  0  0  0  0
    1.6813    5.1521   -0.9030 N   0  0  0  0  0  0
    2.6091    5.1416    0.0928 C   0  0  0  0  0  0
    5.2601    6.2040    2.4532 C   0  0  0  0  0  0
    6.5454    5.6534    2.4819 C   0  0  0  0  0  0
    7.5332    6.2076    3.3017 C   0  0  0  0  0  0
    7.2489    7.3199    4.1048 C   0  0  0  0  0  0
    5.9629    7.8706    4.0793 C   0  0  0  0  0  0
    4.9763    7.3131    3.2573 C   0  0  0  0  0  0
    8.3378    7.8749    4.9632 C   0  0  0  0  0  0
    9.4374    7.3257    4.9889 O   0  0  0  0  0  0
    8.0620    9.1042    5.7888 C   0  0  0  0  0  0
    4.6875    8.7245   -1.4129 H   0  0  0  0  0  0
    4.5380    7.0140   -1.8545 H   0  0  0  0  0  0
    5.6475    7.5010   -0.5637 H   0  0  0  0  0  0
    2.5969    7.8125   -0.4757 H   0  0  0  0  0  0
    3.6907    8.2824    0.8087 H   0  0  0  0  0  0
    0.7911    1.9087   -0.4432 H   0  0  0  0  0  0
    0.3084    3.9233   -1.8350 H   0  0  0  0  0  0
    6.7964    4.7994    1.8563 H   0  0  0  0  0  0
    8.5295    5.7680    3.3059 H   0  0  0  0  0  0
    5.6970    8.7292    4.6885 H   0  0  0  0  0  0
    3.9784    7.7475    3.2557 H   0  0  0  0  0  0
    7.2929    8.8930    6.5361 H   0  0  0  0  0  0
    7.7640    9.9357    5.1448 H   0  0  0  0  0  0
    8.9766    9.3966    6.3141 H   0  0  0  0  0  0
  1  2  1  0  0  0
  1 22  1  0  0  0
  1 23  1  0  0  0
  1 24  1  0  0  0
  2  3  1  0  0  0
  2 25  1  0  0  0
  2 26  1  0  0  0
  3 12  1  0  0  0
  3  4  2  0  0  0
  4  5  1  0  0  0
  4 13  1  0  0  0
  5  7  1  0  0  0
  5  6  1  0  0  0
  7 12  1  0  0  0
  7  8  2  0  0  0
  8  9  1  0  0  0
  9 10  2  0  0  0
  9 27  1  0  0  0
 10 11  1  0  0  0
 10 28  1  0  0  0
 11 12  2  0  0  0
 13 14  2  0  0  0
 13 18  1  0  0  0
 14 15  1  0  0  0
 14 29  1  0  0  0
 15 16  2  0  0  0
 15 30  1  0  0  0
 16 17  1  0  0  0
 16 19  1  0  0  0
 17 18  2  0  0  0
 17 31  1  0  0  0
 18 32  1  0  0  0
 19 21  1  0  0  0
 19 20  2  0  0  0
 21 33  1  0  0  0
 21 34  1  0  0  0
 21 35  1  0  0  0
M  END
> <s_m_entry_id>
10031

> <s_m_job_name>
mmod_csearch_11

> <r_mmod_Potential_Energy-MMFF94s>
313.844116

> <b_mmod_Minimization_Converged-MMFF94s>
1

> <r_mmod_RMS_Derivative-MMFF94s>
0.007127

> <i_mmod_Times_Found-MMFF94s>
244

> <r_mmod_Relative_Potential_Energy-MMFF94s>
0

> <i_mmod_Conformation-MMFF94s>
1

> <s_lp_label>
 _100

> <i_mmod_Serial_Number-MMFF94s>
100

$$$$
