CHEMBL1992073.smi
                    3D
 Structure written by MMmdl.
 49 53  0  0  1  0            999 V2000
    3.8359   -0.2800   -0.7983 C   0  0  0  0  0  0
    3.6157    1.0883   -1.4271 C   0  0  0  0  0  0
    2.2684    1.7124   -1.0429 C   0  0  1  0  0  0
    2.1159    1.9578    0.4655 C   0  0  0  0  0  0
    1.1843    3.1600    0.5808 C   0  0  1  0  0  0
    1.6558    4.0518   -0.5625 C   0  0  0  0  0  0
    2.0460    3.0954   -1.7115 C   0  0  2  0  0  0
    0.9466    3.0093   -2.7299 C   0  0  0  0  0  0
   -0.3356    2.8658   -2.4069 N   0  0  0  0  0  0
   -1.0404    2.8611   -3.5878 C   0  0  0  0  0  0
   -0.1859    2.9751   -4.6547 C   0  0  0  0  0  0
   -0.3807    3.0193   -6.0872 C   0  0  0  0  0  0
    0.6162    3.1146   -6.9308 N   0  0  0  0  0  0
    1.8284    3.1613   -6.3171 C   0  0  0  0  0  0
    3.0230    3.2414   -6.9741 N   0  0  0  0  0  0
    3.1214    3.2793   -7.9793 H   0  0  0  0  0  0
    4.0456    3.2485   -6.0483 C   0  0  0  0  0  0
    3.4991    3.1764   -4.7766 C   0  0  0  0  0  0
    2.1153    3.1319   -4.9702 C   0  0  0  0  0  0
    1.0726    3.0468   -4.0952 N   0  0  0  0  0  0
   -0.2167    2.7324    0.3903 N   0  0  0  0  0  0
   -1.4172    3.6466    1.1437 S   0  0  0  0  0  0
   -1.0443    5.0411    1.0476 O   0  0  0  0  0  0
   -2.6833    3.1661    0.6376 O   0  0  0  0  0  0
   -1.3756    3.1598    2.8942 C   0  0  0  0  0  0
   -0.5874    4.0565    3.8099 C   0  0  0  0  0  0
   -2.0915    4.1183    3.8090 C   0  0  0  0  0  0
    4.7803   -0.7076   -1.1498 H   0  0  0  0  0  0
    3.0304   -0.9701   -1.0690 H   0  0  0  0  0  0
    3.8841   -0.2165    0.2929 H   0  0  0  0  0  0
    3.6639    0.9799   -2.5169 H   0  0  0  0  0  0
    4.4378    1.7534   -1.1364 H   0  0  0  0  0  0
    1.4795    1.0115   -1.3511 H   0  0  0  0  0  0
    3.0875    2.2073    0.9105 H   0  0  0  0  0  0
    1.7275    1.0733    0.9821 H   0  0  0  0  0  0
    1.3102    3.6361    1.5576 H   0  0  0  0  0  0
    0.9210    4.8085   -0.8571 H   0  0  0  0  0  0
    2.5574    4.5868   -0.2355 H   0  0  0  0  0  0
    2.9607    3.4880   -2.1554 H   0  0  0  0  0  0
   -2.1200    2.7739   -3.5946 H   0  0  0  0  0  0
   -1.4085    2.9707   -6.4832 H   0  0  0  0  0  0
    5.0749    3.3003   -6.3781 H   0  0  0  0  0  0
    4.0833    3.1550   -3.8694 H   0  0  0  0  0  0
   -0.4768    2.6164   -0.6057 H   0  0  0  0  0  0
   -1.4357    2.1026    3.1018 H   0  0  0  0  0  0
   -0.0502    4.9050    3.4012 H   0  0  0  0  0  0
   -0.1000    3.6013    4.6642 H   0  0  0  0  0  0
   -2.6215    3.7026    4.6578 H   0  0  0  0  0  0
   -2.5642    4.9977    3.3841 H   0  0  0  0  0  0
  1  2  1  0  0  0
  1 28  1  0  0  0
  1 29  1  0  0  0
  1 30  1  0  0  0
  2  3  1  0  0  0
  2 31  1  0  0  0
  2 32  1  0  0  0
  3  7  1  0  0  0
  3  4  1  0  0  0
  3 33  1  0  0  0
  4  5  1  0  0  0
  4 34  1  0  0  0
  4 35  1  0  0  0
  5  6  1  0  0  0
  5 21  1  0  0  0
  5 36  1  0  0  0
  6  7  1  0  0  0
  6 37  1  0  0  0
  6 38  1  0  0  0
  7  8  1  0  0  0
  7 39  1  0  0  0
  8  9  2  0  0  0
  8 20  1  0  0  0
  9 10  1  0  0  0
 10 11  2  0  0  0
 10 40  1  0  0  0
 11 12  1  0  0  0
 11 20  1  0  0  0
 12 13  2  0  0  0
 12 41  1  0  0  0
 13 14  1  0  0  0
 14 15  1  0  0  0
 14 19  2  0  0  0
 15 17  1  0  0  0
 15 16  1  0  0  0
 17 18  2  0  0  0
 17 42  1  0  0  0
 18 19  1  0  0  0
 18 43  1  0  0  0
 19 20  1  0  0  0
 21 22  1  0  0  0
 21 44  1  0  0  0
 22 25  1  0  0  0
 22 24  2  0  0  0
 22 23  2  0  0  0
 25 27  1  0  0  0
 25 26  1  0  0  0
 25 45  1  0  0  0
 26 27  1  0  0  0
 26 46  1  0  0  0
 26 47  1  0  0  0
 27 48  1  0  0  0
 27 49  1  0  0  0
M  END
> <s_m_entry_id>
176

> <s_m_entry_name>
CHEMBL1992073.1

> <s_m_job_name>
mmod_csearch_27

> <s_lp_label>
 _24

> <r_mmod_Potential_Energy-MMFF94s>
-76.616478

> <b_mmod_Minimization_Converged-MMFF94s>
1

> <r_mmod_RMS_Derivative-MMFF94s>
0.013035

> <i_mmod_Times_Found-MMFF94s>
50

> <r_mmod_Relative_Potential_Energy-MMFF94s>
0

> <i_mmod_Conformation-MMFF94s>
1

> <i_mmod_Serial_Number-MMFF94s>
24

$$$$
