CHEMBL1972355.smi
                    3D
 Structure written by MMmdl.
 38 41  0  0  1  0            999 V2000
    2.3538    0.2483    0.4552 C   0  0  0  0  0  0
    2.3646    0.2154    1.8889 O   0  0  0  0  0  0
    3.3720   -0.6079    2.3411 C   0  0  0  0  0  0
    3.1690   -1.9982    2.4615 C   0  0  0  0  0  0
    1.8769   -2.6563    2.1593 C   0  0  0  0  0  0
    0.8765   -2.0630    1.7788 O   0  0  0  0  0  0
    1.8221   -4.1183    2.3328 C   0  0  0  0  0  0
    2.9083   -4.7819    2.7462 C   0  0  0  0  0  0
    2.9194   -6.2658    2.9418 C   0  0  0  0  0  0
    4.1160   -4.1750    3.0337 O   0  0  0  0  0  0
    4.2162   -2.8122    2.8990 C   0  0  0  0  0  0
    5.4502   -2.2579    3.2289 C   0  0  0  0  0  0
    5.6313   -0.8803    3.1502 C   0  0  0  0  0  0
    6.8722   -0.4185    3.5107 O   0  0  0  0  0  0
    4.5963   -0.0222    2.7345 C   0  0  0  0  0  0
    4.8199    1.4323    2.7425 C   0  0  0  0  0  0
    6.0006    2.0233    2.8493 N   0  0  0  0  0  0
    5.7483    3.3749    2.8390 C   0  0  0  0  0  0
    6.6394    4.4548    2.9113 C   0  0  0  0  0  0
    6.1197    5.7555    2.8836 C   0  0  0  0  0  0
    4.7429    5.9747    2.7873 C   0  0  0  0  0  0
    3.8392    4.9081    2.7154 C   0  0  0  0  0  0
    4.3856    3.6238    2.7437 C   0  0  0  0  0  0
    3.8203    2.3781    2.6979 N   0  0  0  0  0  0
    2.8339    2.1649    2.6336 H   0  0  0  0  0  0
    1.4607    0.7970    0.1423 H   0  0  0  0  0  0
    2.3130   -0.7522    0.0127 H   0  0  0  0  0  0
    3.2319    0.7843    0.0792 H   0  0  0  0  0  0
    0.8784   -4.6008    2.1115 H   0  0  0  0  0  0
    1.9509   -6.7200    2.7083 H   0  0  0  0  0  0
    3.1629   -6.5078    3.9814 H   0  0  0  0  0  0
    3.6723   -6.7264    2.2941 H   0  0  0  0  0  0
    6.2678   -2.8917    3.5626 H   0  0  0  0  0  0
    6.8832    0.5548    3.3591 H   0  0  0  0  0  0
    7.7066    4.2795    2.9869 H   0  0  0  0  0  0
    6.7983    6.6036    2.9390 H   0  0  0  0  0  0
    4.3651    6.9953    2.7692 H   0  0  0  0  0  0
    2.7705    5.0784    2.6429 H   0  0  0  0  0  0
  1  2  1  0  0  0
  1 26  1  0  0  0
  1 27  1  0  0  0
  1 28  1  0  0  0
  2  3  1  0  0  0
  3 15  1  0  0  0
  3  4  2  0  0  0
  4 11  1  0  0  0
  4  5  1  0  0  0
  5  7  1  0  0  0
  5  6  2  0  0  0
  7  8  2  0  0  0
  7 29  1  0  0  0
  8 10  1  0  0  0
  8  9  1  0  0  0
  9 30  1  0  0  0
  9 31  1  0  0  0
  9 32  1  0  0  0
 10 11  1  0  0  0
 11 12  2  0  0  0
 12 13  1  0  0  0
 12 33  1  0  0  0
 13 15  2  0  0  0
 13 14  1  0  0  0
 14 34  1  0  0  0
 15 16  1  0  0  0
 16 17  2  0  0  0
 16 24  1  0  0  0
 17 18  1  0  0  0
 18 19  2  0  0  0
 18 23  1  0  0  0
 19 20  1  0  0  0
 19 35  1  0  0  0
 20 21  2  0  0  0
 20 36  1  0  0  0
 21 22  1  0  0  0
 21 37  1  0  0  0
 22 23  2  0  0  0
 22 38  1  0  0  0
 23 24  1  0  0  0
 24 25  1  0  0  0
M  END
> <s_m_entry_id>
10091

> <s_m_job_name>
mmod_csearch_12

> <r_mmod_Potential_Energy-MMFF94s>
202.269897

> <b_mmod_Minimization_Converged-MMFF94s>
1

> <r_mmod_RMS_Derivative-MMFF94s>
0.00595

> <i_mmod_Times_Found-MMFF94s>
981

> <r_mmod_Relative_Potential_Energy-MMFF94s>
0

> <i_mmod_Conformation-MMFF94s>
1

> <s_lp_label>
 _60

> <i_mmod_Serial_Number-MMFF94s>
60

$$$$
