CHEMBL1976420.smi
                    3D
 Structure written by MMmdl.
 40 42  0  0  1  0            999 V2000
    1.0063    3.8156    3.3592 C   0  0  0  0  0  0
    2.2849    3.0791    3.7293 C   0  0  0  0  0  0
    3.3680    3.2777    2.7176 C   0  0  0  0  0  0
    3.5548    2.5935    1.5154 C   0  0  0  0  0  0
    4.6654    3.1367    0.9007 N   0  0  0  0  0  0
    5.0533    2.8399    0.0181 H   0  0  0  0  0  0
    5.1926    4.1342    1.6653 C   0  0  0  0  0  0
    6.2801    4.8733    1.3606 N   0  0  0  0  0  0
    6.5306    5.7822    2.3339 C   0  0  0  0  0  0
    5.7639    5.9242    3.4844 C   0  0  0  0  0  0
    4.6758    5.1706    3.7698 N   0  0  0  0  0  0
    4.4059    4.2483    2.8056 C   0  0  0  0  0  0
    2.8053    1.5022    0.9023 C   0  0  0  0  0  0
    2.6705    0.2766    1.5579 C   0  0  0  0  0  0
    1.9591   -0.7756    0.9682 C   0  0  0  0  0  0
    1.3597   -0.6266   -0.2914 C   0  0  0  0  0  0
    1.5122    0.6116   -0.9445 C   0  0  0  0  0  0
    2.2232    1.6623   -0.3566 C   0  0  0  0  0  0
    0.5789   -1.7469   -0.9767 C   0  0  0  0  0  0
    1.3919   -2.3319   -2.1367 C   0  0  0  0  0  0
    0.1289   -2.8820   -0.0474 C   0  0  0  0  0  0
   -0.6244   -1.1947   -1.5299 O   0  0  0  0  0  0
    0.6050    3.4607    2.4040 H   0  0  0  0  0  0
    1.1825    4.8930    3.2696 H   0  0  0  0  0  0
    0.2423    3.6585    4.1271 H   0  0  0  0  0  0
    2.0684    2.0119    3.8471 H   0  0  0  0  0  0
    2.6273    3.4292    4.7106 H   0  0  0  0  0  0
    7.3930    6.4182    2.1627 H   0  0  0  0  0  0
    6.0157    6.6729    4.2282 H   0  0  0  0  0  0
    3.1288    0.1249    2.5329 H   0  0  0  0  0  0
    1.8932   -1.7105    1.5186 H   0  0  0  0  0  0
    1.0683    0.7654   -1.9278 H   0  0  0  0  0  0
    2.3039    2.6082   -0.8874 H   0  0  0  0  0  0
    1.6243   -1.5695   -2.8895 H   0  0  0  0  0  0
    0.8229   -3.1101   -2.6588 H   0  0  0  0  0  0
    2.3356   -2.7665   -1.7896 H   0  0  0  0  0  0
   -0.4622   -2.4946    0.7909 H   0  0  0  0  0  0
    0.9753   -3.4483    0.3553 H   0  0  0  0  0  0
   -0.5220   -3.5849   -0.5812 H   0  0  0  0  0  0
   -0.9828   -0.5784   -0.8673 H   0  0  0  0  0  0
  1  2  1  0  0  0
  1 23  1  0  0  0
  1 24  1  0  0  0
  1 25  1  0  0  0
  2  3  1  0  0  0
  2 26  1  0  0  0
  2 27  1  0  0  0
  3 12  1  0  0  0
  3  4  2  0  0  0
  4  5  1  0  0  0
  4 13  1  0  0  0
  5  7  1  0  0  0
  5  6  1  0  0  0
  7 12  1  0  0  0
  7  8  2  0  0  0
  8  9  1  0  0  0
  9 10  2  0  0  0
  9 28  1  0  0  0
 10 11  1  0  0  0
 10 29  1  0  0  0
 11 12  2  0  0  0
 13 14  2  0  0  0
 13 18  1  0  0  0
 14 15  1  0  0  0
 14 30  1  0  0  0
 15 16  2  0  0  0
 15 31  1  0  0  0
 16 17  1  0  0  0
 16 19  1  0  0  0
 17 18  2  0  0  0
 17 32  1  0  0  0
 18 33  1  0  0  0
 19 22  1  0  0  0
 19 21  1  0  0  0
 19 20  1  0  0  0
 20 34  1  0  0  0
 20 35  1  0  0  0
 20 36  1  0  0  0
 21 37  1  0  0  0
 21 38  1  0  0  0
 21 39  1  0  0  0
 22 40  1  0  0  0
M  END
> <s_m_entry_id>
9900

> <s_m_job_name>
mmod_csearch_10

> <r_mmod_Potential_Energy-MMFF94s>
292.118958

> <b_mmod_Minimization_Converged-MMFF94s>
1

> <r_mmod_RMS_Derivative-MMFF94s>
0.007631

> <i_mmod_Times_Found-MMFF94s>
171

> <r_mmod_Relative_Potential_Energy-MMFF94s>
0

> <i_mmod_Conformation-MMFF94s>
1

> <s_lp_label>
 _69

> <i_mmod_Serial_Number-MMFF94s>
69

$$$$
