CHEMBL2002586.smi
                    3D
 Structure written by MMmdl.
 47 51  0  0  1  0            999 V2000
    5.1126   -2.3165    2.3021 Cl  0  0  0  0  0  0
    4.4993   -1.1312    1.1903 C   0  0  0  0  0  0
    5.0198    0.1685    1.2955 C   0  0  0  0  0  0
    4.5544    1.2043    0.4846 C   0  0  0  0  0  0
    5.0377    2.5160    0.5313 N   0  0  0  0  0  0
    6.0432    3.1515    1.2598 C   0  0  0  0  0  0
    6.8140    2.4686    2.1149 N   0  0  0  0  0  0
    7.7863    3.0854    2.8231 C   0  0  0  0  0  0
    8.5802    2.3608    3.7169 N   0  0  0  0  0  0
    8.3945    0.9360    3.9200 C   0  0  0  0  0  0
    8.8689    0.2760    5.1845 C   0  0  0  0  0  0
    7.3994    0.4215    4.9213 C   0  0  0  0  0  0
    7.9545    4.4551    2.6196 C   0  0  0  0  0  0
    9.0722    5.5548    3.3312 S   0  0  0  0  0  0
    8.4529    6.8734    2.4381 C   0  0  0  0  0  0
    7.4181    6.4935    1.6144 C   0  0  0  0  0  0
    7.1249    5.1008    1.7139 C   0  0  0  0  0  0
    6.1581    4.4604    1.0194 N   0  0  0  0  0  0
    3.5459    0.8943   -0.4368 C   0  0  0  0  0  0
    3.0225   -0.4017   -0.5451 C   0  0  0  0  0  0
    3.4882   -1.4490    0.2601 C   0  0  0  0  0  0
    2.9761   -2.7369    0.1263 N   0  0  0  0  0  0
    3.8421   -3.7275   -0.5383 C   0  0  0  0  0  0
    3.3590   -5.1475   -0.2033 C   0  0  0  0  0  0
    1.9693   -5.3255   -0.5312 O   0  0  0  0  0  0
    1.1653   -4.3963    0.2160 C   0  0  0  0  0  0
    1.5397   -2.9409   -0.1076 C   0  0  0  0  0  0
    5.7895    0.3524    2.0379 H   0  0  0  0  0  0
    4.5888    3.1945   -0.0662 H   0  0  0  0  0  0
    9.2940    2.8842    4.2073 H   0  0  0  0  0  0
    8.5076    0.3636    3.0015 H   0  0  0  0  0  0
    9.3041    0.8919    5.9615 H   0  0  0  0  0  0
    9.3018   -0.7141    5.1042 H   0  0  0  0  0  0
    6.8342   -0.4638    4.6548 H   0  0  0  0  0  0
    6.8410    1.1463    5.5013 H   0  0  0  0  0  0
    8.8753    7.8620    2.5589 H   0  0  0  0  0  0
    6.8868    7.1768    0.9647 H   0  0  0  0  0  0
    3.1523    1.6645   -1.0966 H   0  0  0  0  0  0
    2.2557   -0.5831   -1.2932 H   0  0  0  0  0  0
    4.8925   -3.6288   -0.2457 H   0  0  0  0  0  0
    3.7824   -3.5698   -1.6226 H   0  0  0  0  0  0
    3.9314   -5.8802   -0.7807 H   0  0  0  0  0  0
    3.5047   -5.3718    0.8602 H   0  0  0  0  0  0
    0.1184   -4.5775   -0.0469 H   0  0  0  0  0  0
    1.2825   -4.6047    1.2863 H   0  0  0  0  0  0
    1.3083   -2.7370   -1.1601 H   0  0  0  0  0  0
    0.9419   -2.2703    0.5204 H   0  0  0  0  0  0
  1  2  1  0  0  0
  2  3  2  0  0  0
  2 21  1  0  0  0
  3  4  1  0  0  0
  3 28  1  0  0  0
  4 19  2  0  0  0
  4  5  1  0  0  0
  5  6  1  0  0  0
  5 29  1  0  0  0
  6  7  2  0  0  0
  6 18  1  0  0  0
  7  8  1  0  0  0
  8 13  2  0  0  0
  8  9  1  0  0  0
  9 10  1  0  0  0
  9 30  1  0  0  0
 10 12  1  0  0  0
 10 11  1  0  0  0
 10 31  1  0  0  0
 11 12  1  0  0  0
 11 32  1  0  0  0
 11 33  1  0  0  0
 12 34  1  0  0  0
 12 35  1  0  0  0
 13 14  1  0  0  0
 13 17  1  0  0  0
 14 15  1  0  0  0
 15 16  2  0  0  0
 15 36  1  0  0  0
 16 17  1  0  0  0
 16 37  1  0  0  0
 17 18  2  0  0  0
 19 20  1  0  0  0
 19 38  1  0  0  0
 20 21  2  0  0  0
 20 39  1  0  0  0
 21 22  1  0  0  0
 22 27  1  0  0  0
 22 23  1  0  0  0
 23 24  1  0  0  0
 23 40  1  0  0  0
 23 41  1  0  0  0
 24 25  1  0  0  0
 24 42  1  0  0  0
 24 43  1  0  0  0
 25 26  1  0  0  0
 26 27  1  0  0  0
 26 44  1  0  0  0
 26 45  1  0  0  0
 27 46  1  0  0  0
 27 47  1  0  0  0
M  END
> <s_m_entry_id>
201

> <s_m_entry_name>
CHEMBL2002586.1

> <s_m_job_name>
mmod_csearch_27

> <s_lp_label>
 _50

> <r_mmod_Potential_Energy-MMFF94s>
137.059402

> <b_mmod_Minimization_Converged-MMFF94s>
1

> <r_mmod_RMS_Derivative-MMFF94s>
0.009486

> <i_mmod_Times_Found-MMFF94s>
97

> <r_mmod_Relative_Potential_Energy-MMFF94s>
0

> <i_mmod_Conformation-MMFF94s>
1

> <i_mmod_Serial_Number-MMFF94s>
50

$$$$
