CHEMBL2004033.smi
                    3D
 Structure written by MMmdl.
 16 17  0  0  1  0            999 V2000
    1.7082    3.3991    3.6884 O   0  0  0  0  0  0
    2.8775    2.9954    3.1949 C   0  0  0  0  0  0
    2.8214    2.4924    1.9706 N   0  0  0  0  0  0
    4.1205    2.1628    1.7065 N   0  0  0  0  0  0
    4.6180    1.5883    0.5345 C   0  0  0  0  0  0
    5.9284    1.3186    0.4180 C   0  0  0  0  0  0
    6.8117    1.6341    1.5275 C   0  0  0  0  0  0
    6.3484    2.1880    2.6642 C   0  0  0  0  0  0
    4.9579    2.4749    2.7895 C   0  0  0  0  0  0
    4.1490    3.0159    3.7561 C   0  0  0  0  0  0
    4.6013    3.6494    5.4517 Br  0  0  0  0  0  0
    1.0618    3.2140    2.9858 H   0  0  0  0  0  0
    3.8929    1.3855   -0.2420 H   0  0  0  0  0  0
    6.3449    0.8730   -0.4787 H   0  0  0  0  0  0
    7.8681    1.4080    1.4129 H   0  0  0  0  0  0
    7.0214    2.4181    3.4849 H   0  0  0  0  0  0
  1  2  1  0  0  0
  1 12  1  0  0  0
  2  3  2  0  0  0
  2 10  1  0  0  0
  3  4  1  0  0  0
  4  5  1  0  0  0
  4  9  1  0  0  0
  5  6  2  0  0  0
  5 13  1  0  0  0
  6  7  1  0  0  0
  6 14  1  0  0  0
  7  8  2  0  0  0
  7 15  1  0  0  0
  8  9  1  0  0  0
  8 16  1  0  0  0
  9 10  2  0  0  0
 10 11  1  0  0  0
M  END
> <s_m_entry_id>
9857

> <s_m_job_name>
mmod_csearch_10

> <r_mmod_Potential_Energy-MMFF94s>
-41.152336

> <b_mmod_Minimization_Converged-MMFF94s>
1

> <r_mmod_RMS_Derivative-MMFF94s>
0.002139

> <i_mmod_Times_Found-MMFF94s>
690

> <r_mmod_Relative_Potential_Energy-MMFF94s>
0

> <i_mmod_Conformation-MMFF94s>
1

> <s_lp_label>
 _26

> <i_mmod_Serial_Number-MMFF94s>
26

$$$$
