CHEMBL1964382.smi
                    3D
 Structure written by MMmdl.
 33 34  0  0  1  0            999 V2000
    3.4267   -0.2461    0.5870 C   0  0  0  0  0  0
    3.6416    0.5016   -0.7553 C   0  0  0  0  0  0
    5.1781    0.6308   -0.9268 C   0  0  0  0  0  0
    2.9593   -0.3569   -1.8489 C   0  0  0  0  0  0
    1.5524   -0.4588   -1.8757 C   0  0  0  0  0  0
    0.9010   -1.2218   -2.8487 C   0  0  0  0  0  0
   -0.9938   -1.3038   -2.8237 Br  0  0  0  0  0  0
    1.6334   -1.9071   -3.8185 C   0  0  0  0  0  0
    1.0003   -2.6557   -4.7748 O   0  0  0  0  0  0
    3.0258   -1.8239   -3.8067 C   0  0  0  0  0  0
    4.2020   -2.8223   -5.2239 I   0  0  0  0  0  0
    3.6819   -1.0576   -2.8312 C   0  0  0  0  0  0
    3.0770    1.9436   -0.7665 C   0  0  0  0  0  0
    3.1035    2.6915   -1.9625 C   0  0  0  0  0  0
    2.6008    3.9945   -2.0120 C   0  0  0  0  0  0
    2.6647    4.9332   -3.6588 Br  0  0  0  0  0  0
    2.0620    4.5893   -0.8706 C   0  0  0  0  0  0
    1.5673    5.8657   -0.9135 O   0  0  0  0  0  0
    2.0310    3.8690    0.3235 C   0  0  0  0  0  0
    1.2421    4.6863    2.0838 I   0  0  0  0  0  0
    2.5344    2.5601    0.3753 C   0  0  0  0  0  0
    2.3674   -0.3153    0.8611 H   0  0  0  0  0  0
    3.9494    0.2493    1.4139 H   0  0  0  0  0  0
    3.8118   -1.2723    0.5325 H   0  0  0  0  0  0
    5.6085    1.2754   -0.1499 H   0  0  0  0  0  0
    5.4549    1.0662   -1.8943 H   0  0  0  0  0  0
    5.6769   -0.3427   -0.8487 H   0  0  0  0  0  0
    0.9579    0.0695   -1.1316 H   0  0  0  0  0  0
    0.0407   -2.5899   -4.6200 H   0  0  0  0  0  0
    4.7680   -1.0177   -2.8508 H   0  0  0  0  0  0
    3.5158    2.2484   -2.8680 H   0  0  0  0  0  0
    1.6753    6.1984   -1.8228 H   0  0  0  0  0  0
    2.4964    2.0298    1.3233 H   0  0  0  0  0  0
  1  2  1  0  0  0
  1 22  1  0  0  0
  1 23  1  0  0  0
  1 24  1  0  0  0
  2 13  1  0  0  0
  2  4  1  0  0  0
  2  3  1  0  0  0
  3 25  1  0  0  0
  3 26  1  0  0  0
  3 27  1  0  0  0
  4 12  1  0  0  0
  4  5  2  0  0  0
  5  6  1  0  0  0
  5 28  1  0  0  0
  6  8  2  0  0  0
  6  7  1  0  0  0
  8 10  1  0  0  0
  8  9  1  0  0  0
  9 29  1  0  0  0
 10 12  2  0  0  0
 10 11  1  0  0  0
 12 30  1  0  0  0
 13 21  1  0  0  0
 13 14  2  0  0  0
 14 15  1  0  0  0
 14 31  1  0  0  0
 15 17  2  0  0  0
 15 16  1  0  0  0
 17 19  1  0  0  0
 17 18  1  0  0  0
 18 32  1  0  0  0
 19 21  2  0  0  0
 19 20  1  0  0  0
 21 33  1  0  0  0
M  END
> <s_m_entry_id>
132

> <s_m_entry_name>
CHEMBL1964382.1

> <s_m_job_name>
mmod_csearch_24

> <s_lp_label>
 _4

> <r_mmod_Potential_Energy-MMFF94s>
349.990692

> <b_mmod_Minimization_Converged-MMFF94s>
1

> <r_mmod_RMS_Derivative-MMFF94s>
0.013029

> <i_mmod_Times_Found-MMFF94s>
137

> <r_mmod_Relative_Potential_Energy-MMFF94s>
0

> <i_mmod_Conformation-MMFF94s>
1

> <i_mmod_Serial_Number-MMFF94s>
4

$$$$
