CHEMBL1999414.smi
                    3D
 Structure written by MMmdl.
 72 75  0  0  1  0            999 V2000
    4.1998    3.8619    2.5763 C   0  0  0  0  0  0
    4.3360    3.1124    1.2535 C   0  0  0  0  0  0
    4.4615    1.6447    1.4179 N   0  0  0  0  0  0
    3.1681    1.0622    1.8385 C   0  0  0  0  0  0
    3.2925   -0.3749    2.3399 C   0  0  0  0  0  0
    4.9145    1.0365    0.1417 C   0  0  0  0  0  0
    6.4040    1.2514   -0.1876 C   0  0  0  0  0  0
    7.3508    0.6465    0.8481 C   0  0  0  0  0  0
    7.3029    1.3717    2.0983 N   0  0  0  0  0  0
    8.3786    2.0288    2.6397 C   0  0  0  0  0  0
    9.4849    2.0745    2.1127 O   0  0  0  0  0  0
    8.1446    2.7731    3.8910 C   0  0  0  0  0  0
    8.8438    3.9502    4.0851 C   0  0  0  0  0  0
    8.7068    4.7540    5.1570 N   0  0  0  0  0  0
    7.8503    4.4184    6.1428 C   0  0  0  0  0  0
    7.7681    5.3219    7.1731 N   0  0  0  0  0  0
    7.1113    3.2049    6.0684 C   0  0  0  0  0  0
    6.1610    2.6094    6.9931 C   0  0  0  0  0  0
    5.6660    1.4042    6.5505 C   0  0  0  0  0  0
    6.3210    0.9540    5.0551 S   0  0  0  0  0  0
    7.2764    2.3914    4.9297 C   0  0  0  0  0  0
    5.7238    3.1243    8.2797 C   0  0  0  0  0  0
    6.4798    2.8768    9.4272 C   0  0  0  0  0  0
    6.0649    3.3881   10.6609 C   0  0  0  0  0  0
    4.8936    4.1515   10.7648 C   0  0  0  0  0  0
    4.5512    4.6281   12.0482 N   0  0  0  0  0  0
    3.4554    5.4054   12.4042 C   0  0  0  0  0  0
    2.6038    5.8082   11.6235 O   0  0  0  0  0  0
    3.4679    5.6586   13.7698 N   0  0  0  0  0  0
    2.5380    6.4114   14.5199 C   0  0  0  0  0  0
    1.4212    7.0455   13.9763 C   0  0  0  0  0  0
    0.5550    7.7780   14.7932 C   0  0  0  0  0  0
    0.7945    7.8800   16.1622 C   0  0  0  0  0  0
    1.8989    7.2403   16.7305 C   0  0  0  0  0  0
    2.1819    7.3732   18.1975 C   0  0  0  0  0  0
    2.7707    6.5196   15.8997 C   0  0  0  0  0  0
    4.1448    4.3935    9.6111 C   0  0  0  0  0  0
    4.5559    3.8835    8.3737 C   0  0  0  0  0  0
    4.2593    4.9408    2.3974 H   0  0  0  0  0  0
    5.0056    3.5963    3.2658 H   0  0  0  0  0  0
    3.2432    3.6689    3.0691 H   0  0  0  0  0  0
    5.2359    3.5134    0.7756 H   0  0  0  0  0  0
    3.4934    3.3629    0.5965 H   0  0  0  0  0  0
    2.4304    1.1128    1.0277 H   0  0  0  0  0  0
    2.7540    1.6312    2.6768 H   0  0  0  0  0  0
    3.5214   -1.0795    1.5361 H   0  0  0  0  0  0
    2.3451   -0.6932    2.7880 H   0  0  0  0  0  0
    4.0681   -0.4606    3.1071 H   0  0  0  0  0  0
    4.3031    1.4059   -0.6923 H   0  0  0  0  0  0
    4.7676   -0.0485    0.1637 H   0  0  0  0  0  0
    6.6282    2.3141   -0.3287 H   0  0  0  0  0  0
    6.6016    0.7664   -1.1521 H   0  0  0  0  0  0
    8.3728    0.6477    0.4556 H   0  0  0  0  0  0
    7.0759   -0.3915    1.0633 H   0  0  0  0  0  0
    6.3858    1.4331    2.5369 H   0  0  0  0  0  0
    9.5558    4.3044    3.3422 H   0  0  0  0  0  0
    7.1279    5.2183    7.9416 H   0  0  0  0  0  0
    8.3390    6.1493    7.0817 H   0  0  0  0  0  0
    4.9539    0.7568    7.0461 H   0  0  0  0  0  0
    7.3954    2.2919    9.3687 H   0  0  0  0  0  0
    6.6746    3.1795   11.5364 H   0  0  0  0  0  0
    5.1823    4.3742   12.7909 H   0  0  0  0  0  0
    4.2252    5.2581   14.2985 H   0  0  0  0  0  0
    1.1926    6.9959   12.9166 H   0  0  0  0  0  0
   -0.3081    8.2719   14.3537 H   0  0  0  0  0  0
    0.1131    8.4604   16.7800 H   0  0  0  0  0  0
    1.2542    7.5013   18.7652 H   0  0  0  0  0  0
    2.8284    8.2377   18.3769 H   0  0  0  0  0  0
    2.6758    6.4748   18.5823 H   0  0  0  0  0  0
    3.6387    6.0404   16.3460 H   0  0  0  0  0  0
    3.2301    4.9779    9.6343 H   0  0  0  0  0  0
    3.9569    4.0910    7.4894 H   0  0  0  0  0  0
  1  2  1  0  0  0
  1 39  1  0  0  0
  1 40  1  0  0  0
  1 41  1  0  0  0
  2  3  1  0  0  0
  2 42  1  0  0  0
  2 43  1  0  0  0
  3  6  1  0  0  0
  3  4  1  0  0  0
  4  5  1  0  0  0
  4 44  1  0  0  0
  4 45  1  0  0  0
  5 46  1  0  0  0
  5 47  1  0  0  0
  5 48  1  0  0  0
  6  7  1  0  0  0
  6 49  1  0  0  0
  6 50  1  0  0  0
  7  8  1  0  0  0
  7 51  1  0  0  0
  7 52  1  0  0  0
  8  9  1  0  0  0
  8 53  1  0  0  0
  8 54  1  0  0  0
  9 10  1  0  0  0
  9 55  1  0  0  0
 10 12  1  0  0  0
 10 11  2  0  0  0
 12 13  2  0  0  0
 12 21  1  0  0  0
 13 14  1  0  0  0
 13 56  1  0  0  0
 14 15  2  0  0  0
 15 17  1  0  0  0
 15 16  1  0  0  0
 16 57  1  0  0  0
 16 58  1  0  0  0
 17 21  2  0  0  0
 17 18  1  0  0  0
 18 19  2  0  0  0
 18 22  1  0  0  0
 19 20  1  0  0  0
 19 59  1  0  0  0
 20 21  1  0  0  0
 22 23  2  0  0  0
 22 38  1  0  0  0
 23 24  1  0  0  0
 23 60  1  0  0  0
 24 25  2  0  0  0
 24 61  1  0  0  0
 25 37  1  0  0  0
 25 26  1  0  0  0
 26 27  1  0  0  0
 26 62  1  0  0  0
 27 29  1  0  0  0
 27 28  2  0  0  0
 29 30  1  0  0  0
 29 63  1  0  0  0
 30 31  2  0  0  0
 30 36  1  0  0  0
 31 32  1  0  0  0
 31 64  1  0  0  0
 32 33  2  0  0  0
 32 65  1  0  0  0
 33 34  1  0  0  0
 33 66  1  0  0  0
 34 36  2  0  0  0
 34 35  1  0  0  0
 35 67  1  0  0  0
 35 68  1  0  0  0
 35 69  1  0  0  0
 36 70  1  0  0  0
 37 38  2  0  0  0
 37 71  1  0  0  0
 38 72  1  0  0  0
M  END
> <s_m_entry_id>
194

> <s_m_entry_name>
CHEMBL1999414.1

> <s_m_job_name>
mmod_csearch_27

> <s_lp_label>
 _43

> <r_mmod_Potential_Energy-MMFF94s>
-210.860977

> <b_mmod_Minimization_Converged-MMFF94s>
1

> <r_mmod_RMS_Derivative-MMFF94s>
0.014747

> <i_mmod_Times_Found-MMFF94s>
4

> <r_mmod_Relative_Potential_Energy-MMFF94s>
0

> <i_mmod_Conformation-MMFF94s>
1

> <i_mmod_Serial_Number-MMFF94s>
43

$$$$
