CHEMBL1976872.smi
                    3D
 Structure written by MMmdl.
 22 23  0  0  1  0            999 V2000
    1.4742    1.1943   -0.8338 C   0  0  0  0  0  0
    2.8087    1.7303   -0.3835 C   0  0  0  0  0  0
    2.8889    2.5634    0.5133 O   0  0  0  0  0  0
    3.8568    1.1614   -1.0664 N   0  0  0  0  0  0
    5.1866    1.4444   -0.8695 C   0  0  0  0  0  0
    5.7882    2.3427    0.0328 C   0  0  0  0  0  0
    7.1369    2.2244   -0.1958 C   0  0  0  0  0  0
    8.3068    2.8252    0.3490 C   0  0  0  0  0  0
    9.5158    2.4658   -0.1236 C   0  0  0  0  0  0
    9.6564    1.4766   -1.1793 C   0  0  0  0  0  0
    8.5494    0.9125   -1.6900 C   0  0  0  0  0  0
    7.2903    1.2774   -1.2078 N   0  0  0  0  0  0
    6.0856    0.8023   -1.6172 N   0  0  0  0  0  0
    1.4414    1.1086   -1.9238 H   0  0  0  0  0  0
    0.6791    1.8742   -0.5153 H   0  0  0  0  0  0
    1.3098    0.2103   -0.3865 H   0  0  0  0  0  0
    3.6962    0.4694   -1.7843 H   0  0  0  0  0  0
    5.3083    2.9897    0.7533 H   0  0  0  0  0  0
    8.2120    3.5651    1.1378 H   0  0  0  0  0  0
   10.4217    2.9111    0.2772 H   0  0  0  0  0  0
   10.6483    1.2158   -1.5310 H   0  0  0  0  0  0
    8.5616    0.1696   -2.4756 H   0  0  0  0  0  0
  1  2  1  0  0  0
  1 14  1  0  0  0
  1 15  1  0  0  0
  1 16  1  0  0  0
  2  4  1  0  0  0
  2  3  2  0  0  0
  4  5  1  0  0  0
  4 17  1  0  0  0
  5 13  2  0  0  0
  5  6  1  0  0  0
  6  7  2  0  0  0
  6 18  1  0  0  0
  7 12  1  0  0  0
  7  8  1  0  0  0
  8  9  2  0  0  0
  8 19  1  0  0  0
  9 10  1  0  0  0
  9 20  1  0  0  0
 10 11  2  0  0  0
 10 21  1  0  0  0
 11 12  1  0  0  0
 11 22  1  0  0  0
 12 13  1  0  0  0
M  END
> <s_m_entry_id>
151

> <s_m_entry_name>
CHEMBL1976872.1

> <s_m_job_name>
mmod_csearch_26

> <s_lp_label>
 _7

> <r_mmod_Potential_Energy-MMFF94s>
-134.832504

> <b_mmod_Minimization_Converged-MMFF94s>
1

> <r_mmod_RMS_Derivative-MMFF94s>
0.009776

> <i_mmod_Times_Found-MMFF94s>
375

> <r_mmod_Relative_Potential_Energy-MMFF94s>
0

> <i_mmod_Conformation-MMFF94s>
1

> <i_mmod_Serial_Number-MMFF94s>
7

$$$$
