CHEMBL1967998.smi
                    3D
 Structure written by MMmdl.
 57 61  0  0  1  0            999 V2000
    0.0484   -3.2729   -2.3706 C   0  0  0  0  0  0
    0.4392   -1.9180   -1.7909 C   0  0  0  0  0  0
   -0.7106   -1.1705   -1.2603 N   0  0  0  0  0  0
   -1.6160   -0.7041   -2.3371 C   0  0  0  0  0  0
   -2.8055    0.1363   -1.8155 C   0  0  0  0  0  0
   -2.3445    1.2578   -0.9788 N   0  0  0  0  0  0
   -1.3864    0.8727    0.0728 C   0  0  0  0  0  0
   -0.2383    0.0158   -0.5073 C   0  0  0  0  0  0
   -3.1803    2.3430   -0.7415 C   0  0  0  0  0  0
   -2.6627    3.5721   -0.3122 C   0  0  0  0  0  0
   -3.4850    4.6891   -0.0938 C   0  0  0  0  0  0
   -4.8667    4.6249   -0.2965 C   0  0  0  0  0  0
   -5.6333    5.7835   -0.1350 N   0  0  0  0  0  0
   -6.9066    6.1375   -0.5697 C   0  0  0  0  0  0
   -7.3486    7.3386   -0.1693 N   0  0  0  0  0  0
   -8.5636    7.7188   -0.6167 C   0  0  0  0  0  0
   -9.3467    6.9545   -1.4502 C   0  0  0  0  0  0
  -10.8867    7.5181   -1.9663 Cl  0  0  0  0  0  0
   -8.8223    5.7272   -1.8247 C   0  0  0  0  0  0
   -9.5464    4.8899   -2.7028 N   0  0  0  0  0  0
   -9.1508    3.7396   -3.4121 C   0  0  0  0  0  0
  -10.1401    2.8474   -3.8599 C   0  0  0  0  0  0
   -9.8311    1.6540   -4.5315 C   0  0  0  0  0  0
   -8.4786    1.3773   -4.7364 C   0  0  0  0  0  0
   -7.8363    0.3215   -5.3279 N   0  0  0  0  0  0
   -8.2558   -0.4984   -5.7501 H   0  0  0  0  0  0
   -6.4935    0.4193   -5.3231 N   0  0  0  0  0  0
   -6.2729    1.5882   -4.7137 C   0  0  0  0  0  0
   -7.4671    2.2317   -4.3217 C   0  0  0  0  0  0
   -7.8049    3.4285   -3.6647 C   0  0  0  0  0  0
   -7.6119    5.3355   -1.3792 N   0  0  0  0  0  0
   -5.3885    3.4039   -0.7221 C   0  0  0  0  0  0
   -4.5637    2.2896   -0.9422 C   0  0  0  0  0  0
   -0.5408   -3.1715   -3.2868 H   0  0  0  0  0  0
   -0.5288   -3.8601   -1.6487 H   0  0  0  0  0  0
    0.9487   -3.8435   -2.6221 H   0  0  0  0  0  0
    0.9811   -1.3346   -2.5459 H   0  0  0  0  0  0
    1.1445   -2.1141   -0.9733 H   0  0  0  0  0  0
   -2.0370   -1.5614   -2.8731 H   0  0  0  0  0  0
   -1.0542   -0.1048   -3.0664 H   0  0  0  0  0  0
   -3.3538    0.5071   -2.6905 H   0  0  0  0  0  0
   -3.4800   -0.5054   -1.2345 H   0  0  0  0  0  0
   -0.9341    1.7418    0.5619 H   0  0  0  0  0  0
   -1.9157    0.3038    0.8481 H   0  0  0  0  0  0
    0.3824    0.6500   -1.1551 H   0  0  0  0  0  0
    0.3914   -0.3110    0.3293 H   0  0  0  0  0  0
   -1.5913    3.6958   -0.1813 H   0  0  0  0  0  0
   -3.0184    5.6216    0.2126 H   0  0  0  0  0  0
   -5.2205    6.5424    0.3852 H   0  0  0  0  0  0
   -8.8928    8.6941   -0.2703 H   0  0  0  0  0  0
  -10.5411    5.0805   -2.7072 H   0  0  0  0  0  0
  -11.1896    3.0680   -3.6743 H   0  0  0  0  0  0
  -10.6127    0.9778   -4.8607 H   0  0  0  0  0  0
   -5.2545    1.9270   -4.5717 H   0  0  0  0  0  0
   -7.0067    4.0975   -3.3613 H   0  0  0  0  0  0
   -6.4557    3.2786   -0.8811 H   0  0  0  0  0  0
   -5.0459    1.3695   -1.2602 H   0  0  0  0  0  0
  1  2  1  0  0  0
  1 34  1  0  0  0
  1 35  1  0  0  0
  1 36  1  0  0  0
  2  3  1  0  0  0
  2 37  1  0  0  0
  2 38  1  0  0  0
  3  8  1  0  0  0
  3  4  1  0  0  0
  4  5  1  0  0  0
  4 39  1  0  0  0
  4 40  1  0  0  0
  5  6  1  0  0  0
  5 41  1  0  0  0
  5 42  1  0  0  0
  6  7  1  0  0  0
  6  9  1  0  0  0
  7  8  1  0  0  0
  7 43  1  0  0  0
  7 44  1  0  0  0
  8 45  1  0  0  0
  8 46  1  0  0  0
  9 10  2  0  0  0
  9 33  1  0  0  0
 10 11  1  0  0  0
 10 47  1  0  0  0
 11 12  2  0  0  0
 11 48  1  0  0  0
 12 32  1  0  0  0
 12 13  1  0  0  0
 13 14  1  0  0  0
 13 49  1  0  0  0
 14 31  1  0  0  0
 14 15  2  0  0  0
 15 16  1  0  0  0
 16 17  2  0  0  0
 16 50  1  0  0  0
 17 19  1  0  0  0
 17 18  1  0  0  0
 19 31  2  0  0  0
 19 20  1  0  0  0
 20 21  1  0  0  0
 20 51  1  0  0  0
 21 22  2  0  0  0
 21 30  1  0  0  0
 22 23  1  0  0  0
 22 52  1  0  0  0
 23 24  2  0  0  0
 23 53  1  0  0  0
 24 25  1  0  0  0
 24 29  1  0  0  0
 25 27  1  0  0  0
 25 26  1  0  0  0
 27 28  2  0  0  0
 28 29  1  0  0  0
 28 54  1  0  0  0
 29 30  2  0  0  0
 30 55  1  0  0  0
 32 33  2  0  0  0
 32 56  1  0  0  0
 33 57  1  0  0  0
M  END
> <s_m_entry_id>
141

> <s_m_entry_name>
CHEMBL1967998.1

> <s_m_job_name>
mmod_csearch_25

> <s_lp_label>
 _5

> <r_mmod_Potential_Energy-MMFF94s>
252.888672

> <b_mmod_Minimization_Converged-MMFF94s>
1

> <r_mmod_RMS_Derivative-MMFF94s>
0.013286

> <i_mmod_Times_Found-MMFF94s>
36

> <r_mmod_Relative_Potential_Energy-MMFF94s>
0

> <i_mmod_Conformation-MMFF94s>
1

> <i_mmod_Serial_Number-MMFF94s>
5

$$$$
